/*---------------------------------------------------------------------------*\
  =========                 |
  \\      /  F ield         | OpenFOAM: The Open Source CFD Toolbox
   \\    /   O peration     | Website:  https://openfoam.org
    \\  /    A nd           | Version:  12
     \\/     M anipulation  |
\*---------------------------------------------------------------------------*/
Build  : 12-6aa359dae696
Exec   : foamRun
Date   : Jan 09 2025
Time   : 14:52:48
Host   : "PCJoran"
PID    : 1913
I/O    : uncollated
Case   : /home/joran/OpenFOAM/joran-12/run/NSIP1/kwOgive
nProcs : 1
sigFpe : Enabling floating point exception trapping (FOAM_SIGFPE).
fileModificationChecking : Monitoring run-time modified files using timeStampMaster (fileModificationSkew 10)
allowSystemOperations : Allowing user-supplied system call operations

// * * * * * * * * * * * * * * * * * * * * * * * * * * * * * * * * * * * * * //
Create time

Create mesh for time = 0

Selecting solver shockFluid
Selecting thermodynamics package 
{
    type            hePsiThermo;
    mixture         pureMixture;
    transport       sutherland;
    thermo          hPolynomial;
    equationOfState perfectGas;
    specie          specie;
    energy          sensibleInternalEnergy;
}

Using dynamicCode for codedBase hePsiThermo_pureMixture_sutherland_hPolynomial_perfectGas_specie___sensibleInternalEnergy___ at line 17 in "/opt/openfoam12/etc/codeTemplates/dynamicCode/psiThermo"
Selecting turbulence model type RAS
Selecting RAS turbulence model kOmegaSST
Selecting thermophysical transport type RAS
Selecting default RAS thermophysical transport model unityLewisEddyDiffusivity
Selecting patchDistMethod meshWave
Using LTS

PIMPLE: No convergence criteria found


PIMPLE: Operating solver in transient mode with 1 outer corrector
PIMPLE: Operating solver in PISO mode



Starting time loop

Flow time scale min/max = 3.25174142126793e-09, 1e-08
Smoothed flow time scale min/max = 3.25174142126793e-09, 1e-08
Time = 1e-07s

diagonal:  Solving for rho, Initial residual = 0, Final residual = 0, No Iterations 0
smoothSolver:  Solving for Ux, Initial residual = 1, Final residual = 4.6174637893482e-05, No Iterations 2
smoothSolver:  Solving for Uy, Initial residual = 1, Final residual = 9.04099946577146e-06, No Iterations 2
smoothSolver:  Solving for Uz, Initial residual = 0.999999999993058, Final residual = 9.72414600835713e-06, No Iterations 2
smoothSolver:  Solving for e, Initial residual = 0.999999976105728, Final residual = 4.46308264284239e-05, No Iterations 2
smoothSolver:  Solving for omega, Initial residual = 0.00080325504093431, Final residual = 5.42550288248501e-06, No Iterations 1
smoothSolver:  Solving for k, Initial residual = 0.999999999998292, Final residual = 0.00469197289640391, No Iterations 1
bounding k, min: 0 max: 3999.97791846929 average: 3999.6318981567
ExecutionTime = 1.3855 s  ClockTime = 2 s

Flow time scale min/max = 3.25174142126793e-09, 1e-08
Smoothed flow time scale min/max = 3.25174142126793e-09, 1e-08
Time = 2e-07s

diagonal:  Solving for rho, Initial residual = 0, Final residual = 0, No Iterations 0
smoothSolver:  Solving for Ux, Initial residual = 0.210098691479709, Final residual = 5.93081069166974e-06, No Iterations 2
smoothSolver:  Solving for Uy, Initial residual = 0.313774782463093, Final residual = 4.95291187205242e-06, No Iterations 2
smoothSolver:  Solving for Uz, Initial residual = 0.240972053591811, Final residual = 1.89140933022221e-05, No Iterations 2
smoothSolver:  Solving for e, Initial residual = 0.208655431590542, Final residual = 5.62438827564736e-06, No Iterations 2
smoothSolver:  Solving for omega, Initial residual = 5.38707778491812e-05, Final residual = 5.0211336905997e-07, No Iterations 1
smoothSolver:  Solving for k, Initial residual = 0.407912006804889, Final residual = 0.00164592452528907, No Iterations 1
bounding k, min: 0 max: 4000.14107993339 average: 3999.25768844348
ExecutionTime = 1.806226 s  ClockTime = 3 s

Flow time scale min/max = 3.25167064826246e-09, 1e-08
Smoothed flow time scale min/max = 3.25167064826246e-09, 1e-08
Time = 3e-07s

diagonal:  Solving for rho, Initial residual = 0, Final residual = 0, No Iterations 0
smoothSolver:  Solving for Ux, Initial residual = 0.112842903598312, Final residual = 2.94666308359516e-06, No Iterations 2
smoothSolver:  Solving for Uy, Initial residual = 0.143691318486385, Final residual = 5.00152671177173e-06, No Iterations 2
smoothSolver:  Solving for Uz, Initial residual = 0.123867762956549, Final residual = 1.21847947100202e-05, No Iterations 2
smoothSolver:  Solving for e, Initial residual = 0.109511839897959, Final residual = 2.80215824159404e-06, No Iterations 2
smoothSolver:  Solving for omega, Initial residual = 5.18220195660462e-05, Final residual = 4.43457368326969e-07, No Iterations 1
smoothSolver:  Solving for k, Initial residual = 0.186820819239013, Final residual = 0.000764806997702534, No Iterations 1
bounding k, min: 0 max: 4001.0952828635 average: 3998.89076459893
ExecutionTime = 2.258727 s  ClockTime = 3 s

Flow time scale min/max = 3.25149604112385e-09, 1e-08
Smoothed flow time scale min/max = 3.25149604112385e-09, 1e-08
Time = 4e-07s

diagonal:  Solving for rho, Initial residual = 0, Final residual = 0, No Iterations 0
smoothSolver:  Solving for Ux, Initial residual = 0.0791529958118361, Final residual = 1.87148342650477e-06, No Iterations 2
smoothSolver:  Solving for Uy, Initial residual = 0.180954282259042, Final residual = 5.85599737705888e-06, No Iterations 2
smoothSolver:  Solving for Uz, Initial residual = 0.0693599649667395, Final residual = 5.21019580210662e-06, No Iterations 2
smoothSolver:  Solving for e, Initial residual = 0.0775601087924535, Final residual = 1.79409796073621e-06, No Iterations 2
smoothSolver:  Solving for omega, Initial residual = 5.06359538696577e-05, Final residual = 4.05342010650595e-07, No Iterations 1
smoothSolver:  Solving for k, Initial residual = 0.123954528193418, Final residual = 0.000501422833993981, No Iterations 1
bounding k, min: 0 max: 4002.85649655602 average: 3998.52919197748
ExecutionTime = 2.684859 s  ClockTime = 4 s

Flow time scale min/max = 3.25132647331243e-09, 1e-08
Smoothed flow time scale min/max = 3.25132647331243e-09, 1e-08
Time = 5e-07s

diagonal:  Solving for rho, Initial residual = 0, Final residual = 0, No Iterations 0
smoothSolver:  Solving for Ux, Initial residual = 0.0610507092596286, Final residual = 1.32278406123862e-06, No Iterations 2
smoothSolver:  Solving for Uy, Initial residual = 0.191642256451072, Final residual = 5.92044342304512e-06, No Iterations 2
smoothSolver:  Solving for Uz, Initial residual = 0.0503030804031437, Final residual = 3.02604229034193e-06, No Iterations 2
smoothSolver:  Solving for e, Initial residual = 0.0601495545338415, Final residual = 1.27565672153087e-06, No Iterations 2
smoothSolver:  Solving for omega, Initial residual = 4.95508771170355e-05, Final residual = 3.7778219305202e-07, No Iterations 1
smoothSolver:  Solving for k, Initial residual = 0.0925524393558254, Final residual = 0.000371584467290822, No Iterations 1
bounding k, min: 0 max: 4005.47312398735 average: 3998.17282283539
ExecutionTime = 3.114267 s  ClockTime = 4 s

Flow time scale min/max = 3.25116208297382e-09, 1e-08
Smoothed flow time scale min/max = 3.25116208297382e-09, 1e-08
Time = 6e-07s

diagonal:  Solving for rho, Initial residual = 0, Final residual = 0, No Iterations 0
smoothSolver:  Solving for Ux, Initial residual = 0.0497442840793846, Final residual = 9.95759108508301e-07, No Iterations 2
smoothSolver:  Solving for Uy, Initial residual = 0.183699540471127, Final residual = 5.47390572798455e-06, No Iterations 2
smoothSolver:  Solving for Uz, Initial residual = 0.039667906795019, Final residual = 2.03387967267363e-06, No Iterations 2
smoothSolver:  Solving for e, Initial residual = 0.0491818479950008, Final residual = 9.65291315107977e-07, No Iterations 2
smoothSolver:  Solving for omega, Initial residual = 4.85446065581604e-05, Final residual = 3.56578775418951e-07, No Iterations 1
smoothSolver:  Solving for k, Initial residual = 0.0736618119752162, Final residual = 0.000294410086447827, No Iterations 1
bounding k, min: 0 max: 4008.98219180702 average: 3997.82150988918
ExecutionTime = 3.532824 s  ClockTime = 4 s

Flow time scale min/max = 3.25100292000267e-09, 1e-08
Smoothed flow time scale min/max = 3.25100292000267e-09, 1e-08
Time = 7e-07s

diagonal:  Solving for rho, Initial residual = 0, Final residual = 0, No Iterations 0
smoothSolver:  Solving for Ux, Initial residual = 0.0420076885402885, Final residual = 7.80926323920407e-07, No Iterations 2
smoothSolver:  Solving for Uy, Initial residual = 0.1666508926984, Final residual = 4.81641612245834e-06, No Iterations 2
smoothSolver:  Solving for Uz, Initial residual = 0.0327676175656286, Final residual = 1.50021537541589e-06, No Iterations 2
smoothSolver:  Solving for e, Initial residual = 0.0416314527412134, Final residual = 7.60741507715893e-07, No Iterations 2
smoothSolver:  Solving for omega, Initial residual = 4.76045312556371e-05, Final residual = 3.39535548564001e-07, No Iterations 1
smoothSolver:  Solving for k, Initial residual = 0.0610074600106248, Final residual = 0.000243324362912031, No Iterations 1
bounding k, min: 0 max: 4013.41390330655 average: 3997.4751114001
ExecutionTime = 3.944742 s  ClockTime = 5 s

Flow time scale min/max = 3.25084910563141e-09, 1e-08
Smoothed flow time scale min/max = 3.25084910563141e-09, 1e-08
Time = 8e-07s

diagonal:  Solving for rho, Initial residual = 0, Final residual = 0, No Iterations 0
smoothSolver:  Solving for Ux, Initial residual = 0.0363780429076118, Final residual = 6.29762862781105e-07, No Iterations 2
smoothSolver:  Solving for Uy, Initial residual = 0.147131082073757, Final residual = 4.13949340153189e-06, No Iterations 2
smoothSolver:  Solving for Uz, Initial residual = 0.0279910122876196, Final residual = 1.17813475559711e-06, No Iterations 2
smoothSolver:  Solving for e, Initial residual = 0.0361113524786787, Final residual = 6.16402206321192e-07, No Iterations 2
smoothSolver:  Solving for omega, Initial residual = 4.67195839963821e-05, Final residual = 3.25379414130242e-07, No Iterations 1
smoothSolver:  Solving for k, Initial residual = 0.0519095856356248, Final residual = 0.000207050084961958, No Iterations 1
bounding k, min: 0 max: 4018.79542180574 average: 3997.13349202834
ExecutionTime = 4.381148 s  ClockTime = 5 s

Flow time scale min/max = 3.25070073246862e-09, 1e-08
Smoothed flow time scale min/max = 3.25070073246862e-09, 1e-08
Time = 9e-07s

diagonal:  Solving for rho, Initial residual = 0, Final residual = 0, No Iterations 0
smoothSolver:  Solving for Ux, Initial residual = 0.0320958640335592, Final residual = 5.17890079139804e-07, No Iterations 2
smoothSolver:  Solving for Uy, Initial residual = 0.128414263176714, Final residual = 3.52506010298775e-06, No Iterations 2
smoothSolver:  Solving for Uz, Initial residual = 0.024530192691663, Final residual = 9.70260151484327e-07, No Iterations 2
smoothSolver:  Solving for e, Initial residual = 0.0318960614709353, Final residual = 5.092742269364e-07, No Iterations 2
smoothSolver:  Solving for omega, Initial residual = 4.58859163809436e-05, Final residual = 3.13342786655871e-07, No Iterations 1
smoothSolver:  Solving for k, Initial residual = 0.0450324857005575, Final residual = 0.000179998214707972, No Iterations 1
bounding k, min: 0 max: 4025.15315883626 average: 3996.79651977912
ExecutionTime = 4.813393 s  ClockTime = 6 s

Flow time scale min/max = 3.2505578659e-09, 1e-08
Smoothed flow time scale min/max = 3.2505578659e-09, 1e-08
Time = 1e-06s

diagonal:  Solving for rho, Initial residual = 0, Final residual = 0, No Iterations 0
smoothSolver:  Solving for Ux, Initial residual = 0.0287276416620437, Final residual = 4.31733469540619e-07, No Iterations 2
smoothSolver:  Solving for Uy, Initial residual = 0.111871429950062, Final residual = 3.00081367612692e-06, No Iterations 2
smoothSolver:  Solving for Uz, Initial residual = 0.0218844935388754, Final residual = 8.26279777532187e-07, No Iterations 2
smoothSolver:  Solving for e, Initial residual = 0.0285692217707722, Final residual = 4.26522044144028e-07, No Iterations 2
smoothSolver:  Solving for omega, Initial residual = 4.51168032738811e-05, Final residual = 3.02959596785895e-07, No Iterations 1
smoothSolver:  Solving for k, Initial residual = 0.0396986621293678, Final residual = 0.000159201929895484, No Iterations 1
bounding k, min: 0 max: 4032.51415113214 average: 3996.46399932703
ExecutionTime = 5.235993 s  ClockTime = 6 s

Flow time scale min/max = 3.25042053980569e-09, 1e-08
Smoothed flow time scale min/max = 3.25042053980569e-09, 1e-08
Time = 1.1e-06s

diagonal:  Solving for rho, Initial residual = 0, Final residual = 0, No Iterations 0
smoothSolver:  Solving for Ux, Initial residual = 0.0260078852665422, Final residual = 3.62918492655656e-07, No Iterations 2
smoothSolver:  Solving for Uy, Initial residual = 0.0983359813945794, Final residual = 2.58014220605862e-06, No Iterations 2
smoothSolver:  Solving for Uz, Initial residual = 0.0198141834028872, Final residual = 7.23755195354213e-07, No Iterations 2
smoothSolver:  Solving for e, Initial residual = 0.0258747920351204, Final residual = 3.60193750994105e-07, No Iterations 2
smoothSolver:  Solving for omega, Initial residual = 4.45046478146936e-05, Final residual = 2.94016208087486e-07, No Iterations 1
smoothSolver:  Solving for k, Initial residual = 0.0358851972912821, Final residual = 0.000143604800688974, No Iterations 1
bounding k, min: 0 max: 4040.85355601336 average: 3996.1352503556
ExecutionTime = 5.6542 s  ClockTime = 7 s

Flow time scale min/max = 3.25028870977079e-09, 1e-08
Smoothed flow time scale min/max = 3.25028870977079e-09, 1e-08
Time = 1.2e-06s

diagonal:  Solving for rho, Initial residual = 0, Final residual = 0, No Iterations 0
smoothSolver:  Solving for Ux, Initial residual = 0.023764912166987, Final residual = 3.06141975089885e-07, No Iterations 2
smoothSolver:  Solving for Uy, Initial residual = 0.08764309549789, Final residual = 2.24947313152908e-06, No Iterations 2
smoothSolver:  Solving for Uz, Initial residual = 0.0181013464972131, Final residual = 6.13621291137186e-07, No Iterations 2
smoothSolver:  Solving for e, Initial residual = 0.0236465949463694, Final residual = 3.05258863237923e-07, No Iterations 2
smoothSolver:  Solving for omega, Initial residual = 4.3991344982795e-05, Final residual = 2.86103110668655e-07, No Iterations 1
smoothSolver:  Solving for k, Initial residual = 0.0329645977802399, Final residual = 0.000131208136723422, No Iterations 1
bounding k, min: 0 max: 4050.14976197918 average: 3995.80984070023
ExecutionTime = 6.082011 s  ClockTime = 7 s

Flow time scale min/max = 3.25016227960806e-09, 1e-08
Smoothed flow time scale min/max = 3.25016227960806e-09, 1e-08
Time = 1.3e-06s

diagonal:  Solving for rho, Initial residual = 0, Final residual = 0, No Iterations 0
smoothSolver:  Solving for Ux, Initial residual = 0.0218827475891977, Final residual = 2.60724835063022e-07, No Iterations 2
smoothSolver:  Solving for Uy, Initial residual = 0.0790365990322671, Final residual = 1.98457212921145e-06, No Iterations 2
smoothSolver:  Solving for Uz, Initial residual = 0.0165229015094139, Final residual = 5.08343824115033e-07, No Iterations 2
smoothSolver:  Solving for e, Initial residual = 0.0217720846149801, Final residual = 2.6124510874581e-07, No Iterations 2
smoothSolver:  Solving for omega, Initial residual = 4.35445842608893e-05, Final residual = 2.79121668238255e-07, No Iterations 1
smoothSolver:  Solving for k, Initial residual = 0.0305140132276364, Final residual = 0.000120837351825328, No Iterations 1
bounding k, min: 0 max: 4060.44092266555 average: 3995.48761757158
ExecutionTime = 6.492969 s  ClockTime = 7 s

Flow time scale min/max = 3.25004120152557e-09, 1e-08
Smoothed flow time scale min/max = 3.25004120152557e-09, 1e-08
Time = 1.4e-06s

diagonal:  Solving for rho, Initial residual = 0, Final residual = 0, No Iterations 0
smoothSolver:  Solving for Ux, Initial residual = 0.0202802524299327, Final residual = 2.24422445861108e-07, No Iterations 2
smoothSolver:  Solving for Uy, Initial residual = 0.0719524990255561, Final residual = 1.76619035435755e-06, No Iterations 2
smoothSolver:  Solving for Uz, Initial residual = 0.0151853831800774, Final residual = 4.23360748404019e-07, No Iterations 2
smoothSolver:  Solving for e, Initial residual = 0.0201723303285282, Final residual = 2.26027503900633e-07, No Iterations 2
smoothSolver:  Solving for omega, Initial residual = 4.31434056089613e-05, Final residual = 2.7289503437105e-07, No Iterations 1
smoothSolver:  Solving for k, Initial residual = 0.0284207536701282, Final residual = 0.000112023144288257, No Iterations 1
bounding k, min: 0 max: 4071.7558925216 average: 3995.16846057471
ExecutionTime = 6.90232 s  ClockTime = 8 s

Flow time scale min/max = 3.24992549344239e-09, 1e-08
Smoothed flow time scale min/max = 3.24992549344239e-09, 1e-08
Time = 1.5e-06s

diagonal:  Solving for rho, Initial residual = 0, Final residual = 0, No Iterations 0
smoothSolver:  Solving for Ux, Initial residual = 0.0188989486360438, Final residual = 1.95146571680358e-07, No Iterations 2
smoothSolver:  Solving for Uy, Initial residual = 0.0660164835677956, Final residual = 1.58270538768014e-06, No Iterations 2
smoothSolver:  Solving for Uz, Initial residual = 0.0140401748278541, Final residual = 3.55119428254986e-07, No Iterations 2
smoothSolver:  Solving for e, Initial residual = 0.0187895118555783, Final residual = 1.97588560044058e-07, No Iterations 2
smoothSolver:  Solving for omega, Initial residual = 4.27784585809337e-05, Final residual = 2.67295326422579e-07, No Iterations 1
smoothSolver:  Solving for k, Initial residual = 0.0266117700786353, Final residual = 0.000104448580096389, No Iterations 1
bounding k, min: 0 max: 4084.12425639318 average: 3994.85225648902
ExecutionTime = 7.297081 s  ClockTime = 8 s

Flow time scale min/max = 3.24981509220575e-09, 1e-08
Smoothed flow time scale min/max = 3.24981509220575e-09, 1e-08
Time = 1.6e-06s

diagonal:  Solving for rho, Initial residual = 0, Final residual = 0, No Iterations 0
smoothSolver:  Solving for Ux, Initial residual = 0.0176956234114041, Final residual = 1.71297255367302e-07, No Iterations 2
smoothSolver:  Solving for Uy, Initial residual = 0.0609683535522421, Final residual = 1.42678555754937e-06, No Iterations 2
smoothSolver:  Solving for Uz, Initial residual = 0.0130329452943985, Final residual = 3.03032535695974e-07, No Iterations 2
smoothSolver:  Solving for e, Initial residual = 0.0175777289473444, Final residual = 1.74348945192344e-07, No Iterations 2
smoothSolver:  Solving for omega, Initial residual = 4.24462705071388e-05, Final residual = 2.62237665265982e-07, No Iterations 1
smoothSolver:  Solving for k, Initial residual = 0.0250326745576617, Final residual = 9.78744311607369e-05, No Iterations 1
bounding k, min: 0 max: 4097.57540934564 average: 3994.5388978985
ExecutionTime = 7.696255 s  ClockTime = 9 s

Flow time scale min/max = 3.2497099229862e-09, 1e-08
Smoothed flow time scale min/max = 3.2497099229862e-09, 1e-08
Time = 1.7e-06s

diagonal:  Solving for rho, Initial residual = 0, Final residual = 0, No Iterations 0
smoothSolver:  Solving for Ux, Initial residual = 0.0166376479171216, Final residual = 1.51659133446576e-07, No Iterations 2
smoothSolver:  Solving for Uy, Initial residual = 0.056620998097188, Final residual = 1.29302017060964e-06, No Iterations 2
smoothSolver:  Solving for Uz, Initial residual = 0.0121580755239814, Final residual = 2.61269365968963e-07, No Iterations 2
smoothSolver:  Solving for e, Initial residual = 0.0165053682193274, Final residual = 1.55143395413293e-07, No Iterations 2
smoothSolver:  Solving for omega, Initial residual = 4.21438218825233e-05, Final residual = 2.57652646333218e-07, No Iterations 1
smoothSolver:  Solving for k, Initial residual = 0.0236421326822498, Final residual = 9.21175280972171e-05, No Iterations 1
bounding k, min: 0 max: 4112.13779249774 average: 3994.22828248375
ExecutionTime = 8.073583 s  ClockTime = 9 s

Flow time scale min/max = 3.24960988525257e-09, 1e-08
Smoothed flow time scale min/max = 3.24960988525257e-09, 1e-08
Time = 1.8e-06s

diagonal:  Solving for rho, Initial residual = 0, Final residual = 0, No Iterations 0
smoothSolver:  Solving for Ux, Initial residual = 0.0156999262865511, Final residual = 1.35317797440615e-07, No Iterations 2
smoothSolver:  Solving for Uy, Initial residual = 0.0528387690974345, Final residual = 1.17795541190823e-06, No Iterations 2
smoothSolver:  Solving for Uz, Initial residual = 0.011381534583771, Final residual = 2.28340031947281e-07, No Iterations 2
smoothSolver:  Solving for e, Initial residual = 0.0155489673340192, Final residual = 1.3910356376023e-07, No Iterations 2
smoothSolver:  Solving for omega, Initial residual = 4.18690393488061e-05, Final residual = 2.53492025775031e-07, No Iterations 1
smoothSolver:  Solving for k, Initial residual = 0.0224081675290635, Final residual = 8.70361319516299e-05, No Iterations 1
bounding k, min: 0 max: 4127.8768015738 average: 3993.92031177844
ExecutionTime = 8.487444 s  ClockTime = 9 s

Flow time scale min/max = 3.24951512892209e-09, 1e-08
Smoothed flow time scale min/max = 3.24951512892209e-09, 1e-08
Time = 1.9e-06s

diagonal:  Solving for rho, Initial residual = 0, Final residual = 0, No Iterations 0
smoothSolver:  Solving for Ux, Initial residual = 0.0148628392765757, Final residual = 1.21596642961395e-07, No Iterations 2
smoothSolver:  Solving for Uy, Initial residual = 0.0495189832638075, Final residual = 1.07820105587422e-06, No Iterations 2
smoothSolver:  Solving for Uz, Initial residual = 0.0106777406666677, Final residual = 2.03712856687273e-07, No Iterations 2
smoothSolver:  Solving for e, Initial residual = 0.0146920829407998, Final residual = 1.25603129811151e-07, No Iterations 2
smoothSolver:  Solving for omega, Initial residual = 4.16201627064557e-05, Final residual = 2.497075239839e-07, No Iterations 1
smoothSolver:  Solving for k, Initial residual = 0.0213056389631006, Final residual = 8.25192097254954e-05, No Iterations 1
bounding k, min: 0 max: 4144.8112750532 average: 3993.61489076361
ExecutionTime = 8.902519 s  ClockTime = 10 s

Flow time scale min/max = 3.24942543322369e-09, 1e-08
Smoothed flow time scale min/max = 3.24942543322369e-09, 1e-08
Time = 2e-06s

diagonal:  Solving for rho, Initial residual = 0, Final residual = 0, No Iterations 0
smoothSolver:  Solving for Ux, Initial residual = 0.0141108230916746, Final residual = 1.09968929593303e-07, No Iterations 2
smoothSolver:  Solving for Uy, Initial residual = 0.0465827169698913, Final residual = 9.90999567188478e-07, No Iterations 2
smoothSolver:  Solving for Uz, Initial residual = 0.0100392129019204, Final residual = 1.81340205678065e-07, No Iterations 2
smoothSolver:  Solving for e, Initial residual = 0.01392124594667, Final residual = 1.1414678880521e-07, No Iterations 2
smoothSolver:  Solving for omega, Initial residual = 4.13952923974341e-05, Final residual = 2.46258673249047e-07, No Iterations 1
smoothSolver:  Solving for k, Initial residual = 0.0203145288366858, Final residual = 7.84782246012246e-05, No Iterations 1
bounding k, min: 0 max: 4162.94668656789 average: 3993.31192755512
ExecutionTime = 9.374853 s  ClockTime = 10 s

Flow time scale min/max = 3.2493404315056e-09, 1e-08
Smoothed flow time scale min/max = 3.2493404315056e-09, 1e-08
Time = 2.1e-06s

diagonal:  Solving for rho, Initial residual = 0, Final residual = 0, No Iterations 0
smoothSolver:  Solving for Ux, Initial residual = 0.0134313767135716, Final residual = 1.00042659890767e-07, No Iterations 2
smoothSolver:  Solving for Uy, Initial residual = 0.0439681876551686, Final residual = 9.14290768028915e-07, No Iterations 2
smoothSolver:  Solving for Uz, Initial residual = 0.00946644075568502, Final residual = 1.63678622390414e-07, No Iterations 2
smoothSolver:  Solving for e, Initial residual = 0.0132240860534551, Final residual = 1.0435213430814e-07, No Iterations 2
smoothSolver:  Solving for omega, Initial residual = 4.11921152683652e-05, Final residual = 2.43110769646382e-07, No Iterations 1
smoothSolver:  Solving for k, Initial residual = 0.0194186845858015, Final residual = 7.48424313223246e-05, No Iterations 1
bounding k, min: 0 max: 4182.27951787362 average: 3993.0113331951
ExecutionTime = 9.831996 s  ClockTime = 11 s

Flow time scale min/max = 3.24926011111958e-09, 1e-08
Smoothed flow time scale min/max = 3.24926011111958e-09, 1e-08
Time = 2.2e-06s

diagonal:  Solving for rho, Initial residual = 0, Final residual = 0, No Iterations 0
smoothSolver:  Solving for Ux, Initial residual = 0.0128142889907644, Final residual = 9.15019119342553e-08, No Iterations 2
smoothSolver:  Solving for Uy, Initial residual = 0.0416262715783277, Final residual = 8.4634056197561e-07, No Iterations 2
smoothSolver:  Solving for Uz, Initial residual = 0.00893740426982496, Final residual = 1.48916257274344e-07, No Iterations 2
smoothSolver:  Solving for e, Initial residual = 0.0125903944338067, Final residual = 9.59099867974447e-08, No Iterations 2
smoothSolver:  Solving for omega, Initial residual = 4.10088071693718e-05, Final residual = 2.40230596357593e-07, No Iterations 1
smoothSolver:  Solving for k, Initial residual = 0.0186049250029407, Final residual = 7.15539176575432e-05, No Iterations 1
bounding k, min: 0 max: 4202.7958729365 average: 3992.71302144699
ExecutionTime = 10.279778 s  ClockTime = 11 s

Flow time scale min/max = 3.24918440546636e-09, 1e-08
Smoothed flow time scale min/max = 3.24918440546636e-09, 1e-08
Time = 2.3e-06s

diagonal:  Solving for rho, Initial residual = 0, Final residual = 0, No Iterations 0
smoothSolver:  Solving for Ux, Initial residual = 0.0122502049260667, Final residual = 8.40949445798924e-08, No Iterations 2
smoothSolver:  Solving for Uy, Initial residual = 0.0395174155047074, Final residual = 7.85921824159986e-07, No Iterations 2
smoothSolver:  Solving for Uz, Initial residual = 0.00845297328981935, Final residual = 1.35485881229461e-07, No Iterations 2
smoothSolver:  Solving for e, Initial residual = 0.0120117790680451, Final residual = 8.85817500016693e-08, No Iterations 2
smoothSolver:  Solving for omega, Initial residual = 4.08436009321754e-05, Final residual = 2.37592277797855e-07, No Iterations 1
smoothSolver:  Solving for k, Initial residual = 0.0178624146123351, Final residual = 6.85654165138549e-05, No Iterations 1
bounding k, min: 0 max: 4224.47010013036 average: 3992.41690856482
ExecutionTime = 10.74176 s  ClockTime = 12 s

Flow time scale min/max = 3.24911317720474e-09, 1e-08
Smoothed flow time scale min/max = 3.24911317720474e-09, 1e-08
Time = 2.4e-06s

diagonal:  Solving for rho, Initial residual = 0, Final residual = 0, No Iterations 0
smoothSolver:  Solving for Ux, Initial residual = 0.0117324136735439, Final residual = 7.76317477082713e-08, No Iterations 2
smoothSolver:  Solving for Uy, Initial residual = 0.0376095163909163, Final residual = 7.31968369496144e-07, No Iterations 2
smoothSolver:  Solving for Uz, Initial residual = 0.00801725755105846, Final residual = 1.24614578919396e-07, No Iterations 2
smoothSolver:  Solving for e, Initial residual = 0.0114812789059083, Final residual = 8.21798936508893e-08, No Iterations 2
smoothSolver:  Solving for omega, Initial residual = 4.06952152376625e-05, Final residual = 2.35173166971017e-07, No Iterations 1
smoothSolver:  Solving for k, Initial residual = 0.0171821427861321, Final residual = 6.5837878642567e-05, No Iterations 1
bounding k, min: 0 max: 4247.26346705702 average: 3992.12291310915
ExecutionTime = 11.239373 s  ClockTime = 12 s

Flow time scale min/max = 3.24904631026153e-09, 1e-08
Smoothed flow time scale min/max = 3.24904631026153e-09, 1e-08
Time = 2.5e-06s

diagonal:  Solving for rho, Initial residual = 0, Final residual = 0, No Iterations 0
smoothSolver:  Solving for Ux, Initial residual = 0.0112546151770934, Final residual = 7.19575204862511e-08, No Iterations 2
smoothSolver:  Solving for Uy, Initial residual = 0.0358759432546933, Final residual = 6.83587849011295e-07, No Iterations 2
smoothSolver:  Solving for Uz, Initial residual = 0.00762491744048466, Final residual = 1.16994854975885e-07, No Iterations 2
smoothSolver:  Solving for e, Initial residual = 0.0109930715248305, Final residual = 7.65559995487623e-08, No Iterations 2
smoothSolver:  Solving for omega, Initial residual = 4.0561985402755e-05, Final residual = 2.32949749603547e-07, No Iterations 1
smoothSolver:  Solving for k, Initial residual = 0.016556553048196, Final residual = 6.33387430225783e-05, No Iterations 1
bounding k, min: 0 max: 4271.12226969911 average: 3991.83095614804
ExecutionTime = 11.646364 s  ClockTime = 13 s

Flow time scale min/max = 3.24898371218834e-09, 1e-08
Smoothed flow time scale min/max = 3.24898371218834e-09, 1e-08
Time = 2.6e-06s

diagonal:  Solving for rho, Initial residual = 0, Final residual = 0, No Iterations 0
smoothSolver:  Solving for Ux, Initial residual = 0.0108125134604355, Final residual = 6.69472291015375e-08, No Iterations 2
smoothSolver:  Solving for Uy, Initial residual = 0.0342945779715606, Final residual = 6.39980879816965e-07, No Iterations 2
smoothSolver:  Solving for Uz, Initial residual = 0.00727246435698418, Final residual = 1.10942902251812e-07, No Iterations 2
smoothSolver:  Solving for e, Initial residual = 0.0105422456153359, Final residual = 7.15840580965145e-08, No Iterations 2
smoothSolver:  Solving for omega, Initial residual = 4.0442922292418e-05, Final residual = 2.30903371891762e-07, No Iterations 1
smoothSolver:  Solving for k, Initial residual = 0.0159836738053128, Final residual = 6.10404524456128e-05, No Iterations 1
bounding k, min: 0 max: 4295.97764058305 average: 3991.54096123967
ExecutionTime = 12.082748 s  ClockTime = 13 s

Flow time scale min/max = 3.24892531331377e-09, 1e-08
Smoothed flow time scale min/max = 3.24892531331377e-09, 1e-08
Time = 2.7e-06s

diagonal:  Solving for rho, Initial residual = 0, Final residual = 0, No Iterations 0
smoothSolver:  Solving for Ux, Initial residual = 0.0104023223621797, Final residual = 6.2499726955176e-08, No Iterations 2
smoothSolver:  Solving for Uy, Initial residual = 0.0328468522364142, Final residual = 6.00524754073136e-07, No Iterations 2
smoothSolver:  Solving for Uz, Initial residual = 0.0069581161781479, Final residual = 1.06367252456268e-07, No Iterations 2
smoothSolver:  Solving for e, Initial residual = 0.0101246317568543, Final residual = 6.71633937122799e-08, No Iterations 2
smoothSolver:  Solving for omega, Initial residual = 4.03372681286718e-05, Final residual = 2.29019300655824e-07, No Iterations 1
smoothSolver:  Solving for k, Initial residual = 0.0154564293143916, Final residual = 5.89197984865654e-05, No Iterations 1
bounding k, min: 0 max: 4321.74476919831 average: 3991.25285473173
ExecutionTime = 12.505224 s  ClockTime = 13 s

Flow time scale min/max = 3.24887106437584e-09, 1e-08
Smoothed flow time scale min/max = 3.24887106437584e-09, 1e-08
Time = 2.8e-06s

diagonal:  Solving for rho, Initial residual = 0, Final residual = 0, No Iterations 0
smoothSolver:  Solving for Ux, Initial residual = 0.0100209023657253, Final residual = 5.85367481686609e-08, No Iterations 2
smoothSolver:  Solving for Uy, Initial residual = 0.031517084125233, Final residual = 5.64750978228046e-07, No Iterations 2
smoothSolver:  Solving for Uz, Initial residual = 0.0066650259293113, Final residual = 1.02533367753958e-07, No Iterations 2
smoothSolver:  Solving for e, Initial residual = 0.00973666902738491, Final residual = 6.3215887920529e-08, No Iterations 2
smoothSolver:  Solving for omega, Initial residual = 4.02443501205799e-05, Final residual = 2.27288322118623e-07, No Iterations 1
smoothSolver:  Solving for k, Initial residual = 0.0149688096004581, Final residual = 5.69574827342224e-05, No Iterations 1
bounding k, min: 0 max: 4348.321987377 average: 3990.96656606185
ExecutionTime = 12.944482 s  ClockTime = 14 s

Flow time scale min/max = 3.24882093240521e-09, 1e-08
Smoothed flow time scale min/max = 3.24882093240521e-09, 1e-08
Time = 2.9e-06s

diagonal:  Solving for rho, Initial residual = 0, Final residual = 0, No Iterations 0
smoothSolver:  Solving for Ux, Initial residual = 0.00966544323413085, Final residual = 5.49861260321798e-08, No Iterations 2
smoothSolver:  Solving for Uy, Initial residual = 0.0302919055681791, Final residual = 5.32220283429675e-07, No Iterations 2
smoothSolver:  Solving for Uz, Initial residual = 0.00639819746473397, Final residual = 9.8984030479613e-08, No Iterations 2
smoothSolver:  Solving for e, Initial residual = 0.00937529236498549, Final residual = 5.96704442238046e-08, No Iterations 2
smoothSolver:  Solving for omega, Initial residual = 4.01635080209103e-05, Final residual = 2.25696284440032e-07, No Iterations 1
smoothSolver:  Solving for k, Initial residual = 0.0145178849573334, Final residual = 5.51364663308152e-05, No Iterations 1
bounding k, min: 0 max: 4375.59051087124 average: 3990.68202799722
ExecutionTime = 13.363169 s  ClockTime = 14 s

Flow time scale min/max = 3.24877490033014e-09, 1e-08
Smoothed flow time scale min/max = 3.24877490033014e-09, 1e-08
Time = 3e-06s

diagonal:  Solving for rho, Initial residual = 0, Final residual = 0, No Iterations 0
smoothSolver:  Solving for Ux, Initial residual = 0.0093335678758947, Final residual = 5.17940284149655e-08, No Iterations 2
smoothSolver:  Solving for Uy, Initial residual = 0.0291597992189012, Final residual = 5.02522930897542e-07, No Iterations 2
smoothSolver:  Solving for Uz, Initial residual = 0.00614781980398833, Final residual = 9.56054018224996e-08, No Iterations 2
smoothSolver:  Solving for e, Initial residual = 0.00903785683801417, Final residual = 5.64731554031906e-08, No Iterations 2
smoothSolver:  Solving for omega, Initial residual = 4.00940586205967e-05, Final residual = 2.24230762948508e-07, No Iterations 1
smoothSolver:  Solving for k, Initial residual = 0.0140995258328224, Final residual = 5.34473288697307e-05, No Iterations 1
bounding k, min: 0 max: 4403.41441301488 average: 3990.39917704326
ExecutionTime = 13.763219 s  ClockTime = 15 s

Flow time scale min/max = 3.24873295252731e-09, 1e-08
Smoothed flow time scale min/max = 3.24873295252731e-09, 1e-08
Time = 3.1e-06s

diagonal:  Solving for rho, Initial residual = 0, Final residual = 0, No Iterations 0
smoothSolver:  Solving for Ux, Initial residual = 0.00902302381589137, Final residual = 4.8912814796554e-08, No Iterations 2
smoothSolver:  Solving for Uy, Initial residual = 0.028110889848195, Final residual = 4.7541559779497e-07, No Iterations 2
smoothSolver:  Solving for Uz, Initial residual = 0.00591327964827063, Final residual = 9.11728495133475e-08, No Iterations 2
smoothSolver:  Solving for e, Initial residual = 0.00872206217427155, Final residual = 5.35790807653009e-08, No Iterations 2
smoothSolver:  Solving for omega, Initial residual = 4.00351500337837e-05, Final residual = 2.22880226714367e-07, No Iterations 1
smoothSolver:  Solving for k, Initial residual = 0.0137101792693117, Final residual = 5.18763469531158e-05, No Iterations 1
bounding k, min: 0 max: 4431.63564675193 average: 3990.11795355842
ExecutionTime = 14.198976 s  ClockTime = 15 s

Flow time scale min/max = 3.24869505281884e-09, 1e-08
Smoothed flow time scale min/max = 3.24869505281884e-09, 1e-08
Time = 3.2e-06s

diagonal:  Solving for rho, Initial residual = 0, Final residual = 0, No Iterations 0
smoothSolver:  Solving for Ux, Initial residual = 0.00873185849582584, Final residual = 4.62952392522592e-08, No Iterations 2
smoothSolver:  Solving for Uy, Initial residual = 0.0271364930901659, Final residual = 4.50532897958892e-07, No Iterations 2
smoothSolver:  Solving for Uz, Initial residual = 0.00569406331772657, Final residual = 8.70598938865132e-08, No Iterations 2
smoothSolver:  Solving for e, Initial residual = 0.00842589717250849, Final residual = 5.09418965960421e-08, No Iterations 2
smoothSolver:  Solving for omega, Initial residual = 3.99857365386555e-05, Final residual = 2.21633612424014e-07, No Iterations 1
smoothSolver:  Solving for k, Initial residual = 0.0133453859903425, Final residual = 5.04104600592792e-05, No Iterations 1
bounding k, min: 0 max: 4460.03732719594 average: 3989.83830233355
ExecutionTime = 14.626436 s  ClockTime = 15 s

Flow time scale min/max = 3.24866114151157e-09, 1e-08
Smoothed flow time scale min/max = 3.24866114151157e-09, 1e-08
Time = 3.3e-06s

diagonal:  Solving for rho, Initial residual = 0, Final residual = 0, No Iterations 0
smoothSolver:  Solving for Ux, Initial residual = 0.0084583368597073, Final residual = 4.39110053790378e-08, No Iterations 2
smoothSolver:  Solving for Uy, Initial residual = 0.0262292091972373, Final residual = 4.27687109299646e-07, No Iterations 2
smoothSolver:  Solving for Uz, Initial residual = 0.0054889155281592, Final residual = 8.28717391306508e-08, No Iterations 2
smoothSolver:  Solving for e, Initial residual = 0.00814760610647247, Final residual = 4.85331707973949e-08, No Iterations 2
smoothSolver:  Solving for omega, Initial residual = 3.99447269805479e-05, Final residual = 2.20480526652887e-07, No Iterations 1
smoothSolver:  Solving for k, Initial residual = 0.0130025573736002, Final residual = 4.90392092882839e-05, No Iterations 1
bounding k, min: 0 max: 4488.42634465516 average: 3989.56017335788
ExecutionTime = 15.043799 s  ClockTime = 16 s

Flow time scale min/max = 3.24863112848164e-09, 1e-08
Smoothed flow time scale min/max = 3.24863112848164e-09, 1e-08
Time = 3.4e-06s

diagonal:  Solving for rho, Initial residual = 0, Final residual = 0, No Iterations 0
smoothSolver:  Solving for Ux, Initial residual = 0.00820090658030566, Final residual = 4.17288553608528e-08, No Iterations 2
smoothSolver:  Solving for Uy, Initial residual = 0.0253824049035429, Final residual = 4.0662410788313e-07, No Iterations 2
smoothSolver:  Solving for Uz, Initial residual = 0.00530119410090681, Final residual = 7.89904230738069e-08, No Iterations 2
smoothSolver:  Solving for e, Initial residual = 0.00788566381614918, Final residual = 4.63225511088539e-08, No Iterations 2
smoothSolver:  Solving for omega, Initial residual = 3.99113233526073e-05, Final residual = 2.19410715763876e-07, No Iterations 1
smoothSolver:  Solving for k, Initial residual = 0.0126797383947196, Final residual = 4.77534688689186e-05, No Iterations 1
bounding k, min: 0 max: 4516.63129376722 average: 3989.28352094867
ExecutionTime = 15.462493 s  ClockTime = 16 s

Flow time scale min/max = 3.24860489140134e-09, 1e-08
Smoothed flow time scale min/max = 3.24860489140134e-09, 1e-08
Time = 3.5e-06s

diagonal:  Solving for rho, Initial residual = 0, Final residual = 0, No Iterations 0
smoothSolver:  Solving for Ux, Initial residual = 0.00795819496390259, Final residual = 3.97281836128927e-08, No Iterations 2
smoothSolver:  Solving for Uy, Initial residual = 0.0245902358989971, Final residual = 3.8717927817097e-07, No Iterations 2
smoothSolver:  Solving for Uz, Initial residual = 0.00512533916639435, Final residual = 7.54053147872871e-08, No Iterations 2
smoothSolver:  Solving for e, Initial residual = 0.00763870846178834, Final residual = 4.42904009076241e-08, No Iterations 2
smoothSolver:  Solving for omega, Initial residual = 3.98844282380519e-05, Final residual = 2.1841309269279e-07, No Iterations 1
smoothSolver:  Solving for k, Initial residual = 0.0123751956436352, Final residual = 4.65453798847199e-05, No Iterations 1
bounding k, min: 0 max: 4544.45461397476 average: 3989.00830427973
ExecutionTime = 15.907743 s  ClockTime = 17 s

Flow time scale min/max = 3.24858153371411e-09, 1e-08
Smoothed flow time scale min/max = 3.24858153371411e-09, 1e-08
Time = 3.6e-06s

diagonal:  Solving for rho, Initial residual = 0, Final residual = 0, No Iterations 0
smoothSolver:  Solving for Ux, Initial residual = 0.00772898349476148, Final residual = 3.78894910172481e-08, No Iterations 2
smoothSolver:  Solving for Uy, Initial residual = 0.0238476067752704, Final residual = 3.6919784491821e-07, No Iterations 2
smoothSolver:  Solving for Uz, Initial residual = 0.00496372108044732, Final residual = 7.19515329622805e-08, No Iterations 2
smoothSolver:  Solving for e, Initial residual = 0.00740551902048181, Final residual = 4.24181333391589e-08, No Iterations 2
smoothSolver:  Solving for omega, Initial residual = 3.98633416085958e-05, Final residual = 2.1747742026669e-07, No Iterations 1
smoothSolver:  Solving for k, Initial residual = 0.0120873921727773, Final residual = 4.54080593756006e-05, No Iterations 1
bounding k, min: 0 max: 4571.68085038307 average: 3988.73448776339
ExecutionTime = 16.345456 s  ClockTime = 17 s

Flow time scale min/max = 3.24856096057842e-09, 1e-08
Smoothed flow time scale min/max = 3.24856096057842e-09, 1e-08
Time = 3.7e-06s

diagonal:  Solving for rho, Initial residual = 0, Final residual = 0, No Iterations 0
smoothSolver:  Solving for Ux, Initial residual = 0.00751218310542421, Final residual = 3.6193817738427e-08, No Iterations 2
smoothSolver:  Solving for Uy, Initial residual = 0.0231499501912198, Final residual = 3.52530792659881e-07, No Iterations 2
smoothSolver:  Solving for Uz, Initial residual = 0.00482194817111201, Final residual = 6.889767527737e-08, No Iterations 2
smoothSolver:  Solving for e, Initial residual = 0.0071849903232727, Final residual = 4.06875163639872e-08, No Iterations 2
smoothSolver:  Solving for omega, Initial residual = 3.98468330487427e-05, Final residual = 2.16592051997882e-07, No Iterations 1
smoothSolver:  Solving for k, Initial residual = 0.0118149530253739, Final residual = 4.43349844005036e-05, No Iterations 1
bounding k, min: 0 max: 4597.37675051677 average: 3988.46205132975
ExecutionTime = 16.75385 s  ClockTime = 18 s

Flow time scale min/max = 3.24854359108581e-09, 1e-08
Smoothed flow time scale min/max = 3.24854359108581e-09, 1e-08
Time = 3.8e-06s

diagonal:  Solving for rho, Initial residual = 0, Final residual = 0, No Iterations 0
smoothSolver:  Solving for Ux, Initial residual = 0.00730683449742581, Final residual = 3.46265309732845e-08, No Iterations 2
smoothSolver:  Solving for Uy, Initial residual = 0.0224932470407718, Final residual = 3.37054039301387e-07, No Iterations 2
smoothSolver:  Solving for Uz, Initial residual = 0.00468449923639841, Final residual = 6.57776771339032e-08, No Iterations 2
smoothSolver:  Solving for e, Initial residual = 0.00697614513348357, Final residual = 3.9084499787621e-08, No Iterations 2
smoothSolver:  Solving for omega, Initial residual = 3.98343301955545e-05, Final residual = 2.15747318609807e-07, No Iterations 1
smoothSolver:  Solving for k, Initial residual = 0.0115566355108808, Final residual = 4.33199301931755e-05, No Iterations 1
bounding k, min: 0 max: 4621.4261500008 average: 3988.19097650947
ExecutionTime = 17.15639 s  ClockTime = 18 s

Flow time scale min/max = 3.24852929280347e-09, 1e-08
Smoothed flow time scale min/max = 3.24852929280347e-09, 1e-08
Time = 3.9e-06s

diagonal:  Solving for rho, Initial residual = 0, Final residual = 0, No Iterations 0
smoothSolver:  Solving for Ux, Initial residual = 0.00711208175274329, Final residual = 3.31759956080722e-08, No Iterations 2
smoothSolver:  Solving for Uy, Initial residual = 0.0218739352649256, Final residual = 3.22653529079974e-07, No Iterations 2
smoothSolver:  Solving for Uz, Initial residual = 0.00455600088461487, Final residual = 6.28046010500203e-08, No Iterations 2
smoothSolver:  Solving for e, Initial residual = 0.0067781212533003, Final residual = 3.75978605278267e-08, No Iterations 2
smoothSolver:  Solving for omega, Initial residual = 3.98249325972694e-05, Final residual = 2.14934996893498e-07, No Iterations 1
smoothSolver:  Solving for k, Initial residual = 0.0113113463648802, Final residual = 4.23579321192355e-05, No Iterations 1
bounding k, min: 0 max: 4643.77428823831 average: 3987.9212418931
ExecutionTime = 17.551596 s  ClockTime = 18 s

Flow time scale min/max = 3.24851792040014e-09, 1e-08
Smoothed flow time scale min/max = 3.24851792040014e-09, 1e-08
Time = 4e-06s

diagonal:  Solving for rho, Initial residual = 0, Final residual = 0, No Iterations 0
smoothSolver:  Solving for Ux, Initial residual = 0.00692714276906371, Final residual = 3.182913971266e-08, No Iterations 2
smoothSolver:  Solving for Uy, Initial residual = 0.0212887893442259, Final residual = 3.09234902114807e-07, No Iterations 2
smoothSolver:  Solving for Uz, Initial residual = 0.00443759416988157, Final residual = 6.00467930391306e-08, No Iterations 2
smoothSolver:  Solving for e, Initial residual = 0.00659013305446142, Final residual = 3.62150661602182e-08, No Iterations 2
smoothSolver:  Solving for omega, Initial residual = 3.98179261102564e-05, Final residual = 2.14150364100533e-07, No Iterations 1
smoothSolver:  Solving for k, Initial residual = 0.0110781191217647, Final residual = 4.14446780975184e-05, No Iterations 1
bounding k, min: 0 max: 4664.37031155163 average: 3987.65282849885
ExecutionTime = 17.955045 s  ClockTime = 19 s

Flow time scale min/max = 3.24850932739673e-09, 1e-08
Smoothed flow time scale min/max = 3.24850932739673e-09, 1e-08
Time = 4.1e-06s

diagonal:  Solving for rho, Initial residual = 0, Final residual = 0, No Iterations 0
smoothSolver:  Solving for Ux, Initial residual = 0.00675130416629344, Final residual = 3.05779223864347e-08, No Iterations 2
smoothSolver:  Solving for Uy, Initial residual = 0.0207348916277883, Final residual = 2.96716624087424e-07, No Iterations 2
smoothSolver:  Solving for Uz, Initial residual = 0.00432818925667481, Final residual = 5.76427273475705e-08, No Iterations 2
smoothSolver:  Solving for e, Initial residual = 0.0064114494359777, Final residual = 3.49282909443424e-08, No Iterations 2
smoothSolver:  Solving for omega, Initial residual = 3.98127172535829e-05, Final residual = 2.13390225135557e-07, No Iterations 1
smoothSolver:  Solving for k, Initial residual = 0.0108560780768804, Final residual = 4.0576332924135e-05, No Iterations 1
bounding k, min: 0 max: 4683.16829730781 average: 3987.38571947003
ExecutionTime = 18.412786 s  ClockTime = 19 s

Flow time scale min/max = 3.24850294887602e-09, 1e-08
Smoothed flow time scale min/max = 3.24850294887602e-09, 1e-08
Time = 4.2e-06s

diagonal:  Solving for rho, Initial residual = 0, Final residual = 0, No Iterations 0
smoothSolver:  Solving for Ux, Initial residual = 0.0065839174610918, Final residual = 2.94121606528917e-08, No Iterations 2
smoothSolver:  Solving for Uy, Initial residual = 0.0202097111367494, Final residual = 2.85007978090443e-07, No Iterations 2
smoothSolver:  Solving for Uz, Initial residual = 0.00422830816564162, Final residual = 5.54798739795833e-08, No Iterations 2
smoothSolver:  Solving for e, Initial residual = 0.00624141732899133, Final residual = 3.3727392008875e-08, No Iterations 2
smoothSolver:  Solving for omega, Initial residual = 3.98088165591168e-05, Final residual = 2.12649575144966e-07, No Iterations 1
smoothSolver:  Solving for k, Initial residual = 0.0106444313282324, Final residual = 3.97494890244762e-05, No Iterations 1
bounding k, min: 0 max: 4700.1280456286 average: 3987.11989900513
ExecutionTime = 18.800416 s  ClockTime = 20 s

Flow time scale min/max = 3.24849829723452e-09, 1e-08
Smoothed flow time scale min/max = 3.24849829723452e-09, 1e-08
Time = 4.3e-06s

diagonal:  Solving for rho, Initial residual = 0, Final residual = 0, No Iterations 0
smoothSolver:  Solving for Ux, Initial residual = 0.00642439229650181, Final residual = 2.83239398032872e-08, No Iterations 2
smoothSolver:  Solving for Uy, Initial residual = 0.0197109264008647, Final residual = 2.74031036787801e-07, No Iterations 2
smoothSolver:  Solving for Uz, Initial residual = 0.00413352355040993, Final residual = 5.34373660812889e-08, No Iterations 2
smoothSolver:  Solving for e, Initial residual = 0.00607942984898365, Final residual = 3.260449907986e-08, No Iterations 2
smoothSolver:  Solving for omega, Initial residual = 3.9805813814083e-05, Final residual = 2.11925202891684e-07, No Iterations 1
smoothSolver:  Solving for k, Initial residual = 0.0104424698947649, Final residual = 3.89611395792505e-05, No Iterations 1
bounding k, min: 0 max: 4715.2156161237 average: 3986.85535225456
ExecutionTime = 19.180936 s  ClockTime = 20 s

Flow time scale min/max = 3.24849606330996e-09, 1e-08
Smoothed flow time scale min/max = 3.24849606330996e-09, 1e-08
Time = 4.4e-06s

diagonal:  Solving for rho, Initial residual = 0, Final residual = 0, No Iterations 0
smoothSolver:  Solving for Ux, Initial residual = 0.00627219019898109, Final residual = 2.73069609399743e-08, No Iterations 2
smoothSolver:  Solving for Uy, Initial residual = 0.0192365087876999, Final residual = 2.63733425854971e-07, No Iterations 2
smoothSolver:  Solving for Uz, Initial residual = 0.00404656689208398, Final residual = 5.15209200852623e-08, No Iterations 2
smoothSolver:  Solving for e, Initial residual = 0.00592494622374681, Final residual = 3.15534245732267e-08, No Iterations 2
smoothSolver:  Solving for omega, Initial residual = 3.98033007855534e-05, Final residual = 2.11215323106543e-07, No Iterations 1
smoothSolver:  Solving for k, Initial residual = 0.0102495456621395, Final residual = 3.82085855349355e-05, No Iterations 1
bounding k, min: 0 max: 4728.31185261246 average: 3986.59206574424
ExecutionTime = 19.606683 s  ClockTime = 20 s

Flow time scale min/max = 3.24849609714076e-09, 1e-08
Smoothed flow time scale min/max = 3.24849609714076e-09, 1e-08
Time = 4.5e-06s

diagonal:  Solving for rho, Initial residual = 0, Final residual = 0, No Iterations 0
smoothSolver:  Solving for Ux, Initial residual = 0.00612681775234006, Final residual = 2.6354660609909e-08, No Iterations 2
smoothSolver:  Solving for Uy, Initial residual = 0.0187845872953842, Final residual = 2.54057816504675e-07, No Iterations 2
smoothSolver:  Solving for Uz, Initial residual = 0.00396549308571555, Final residual = 4.98567968618333e-08, No Iterations 2
smoothSolver:  Solving for e, Initial residual = 0.00577745076168315, Final residual = 3.05676826722993e-08, No Iterations 2
smoothSolver:  Solving for omega, Initial residual = 3.98008909503323e-05, Final residual = 2.10516874158548e-07, No Iterations 1
smoothSolver:  Solving for k, Initial residual = 0.0100650546871824, Final residual = 3.7489108892369e-05, No Iterations 1
bounding k, min: 0 max: 4739.37180595688 average: 3986.33002716386
ExecutionTime = 20.010388 s  ClockTime = 21 s

Flow time scale min/max = 3.24849823659855e-09, 1e-08
Smoothed flow time scale min/max = 3.24849823659855e-09, 1e-08
Time = 4.6e-06s

diagonal:  Solving for rho, Initial residual = 0, Final residual = 0, No Iterations 0
smoothSolver:  Solving for Ux, Initial residual = 0.00598782986673161, Final residual = 2.54617311624623e-08, No Iterations 2
smoothSolver:  Solving for Uy, Initial residual = 0.0183534901692481, Final residual = 2.44955757746055e-07, No Iterations 2
smoothSolver:  Solving for Uz, Initial residual = 0.00388954823853782, Final residual = 4.83984924727109e-08, No Iterations 2
smoothSolver:  Solving for e, Initial residual = 0.00563649216131899, Final residual = 2.96419967927997e-08, No Iterations 2
smoothSolver:  Solving for omega, Initial residual = 3.97984481041545e-05, Final residual = 2.09829769386545e-07, No Iterations 1
smoothSolver:  Solving for k, Initial residual = 0.00988847594028976, Final residual = 3.68006409608693e-05, No Iterations 1
bounding k, min: 0 max: 4748.39673819543 average: 3986.06922359298
ExecutionTime = 20.398068 s  ClockTime = 21 s

Flow time scale min/max = 3.24850234064087e-09, 1e-08
Smoothed flow time scale min/max = 3.24850234064087e-09, 1e-08
Time = 4.7e-06s

diagonal:  Solving for rho, Initial residual = 0, Final residual = 0, No Iterations 0
smoothSolver:  Solving for Ux, Initial residual = 0.00585481286638803, Final residual = 2.46233820262337e-08, No Iterations 2
smoothSolver:  Solving for Uy, Initial residual = 0.017941761817824, Final residual = 2.36383600550064e-07, No Iterations 2
smoothSolver:  Solving for Uz, Initial residual = 0.00381832290827042, Final residual = 4.70857019358073e-08, No Iterations 2
smoothSolver:  Solving for e, Initial residual = 0.00550163940217778, Final residual = 2.87715494383227e-08, No Iterations 2
smoothSolver:  Solving for omega, Initial residual = 3.97957104786825e-05, Final residual = 2.09150516920463e-07, No Iterations 1
smoothSolver:  Solving for k, Initial residual = 0.0097192887593703, Final residual = 3.6140872506381e-05, No Iterations 1
bounding k, min: 0 max: 4755.3966812726 average: 3985.80964078946
ExecutionTime = 20.802522 s  ClockTime = 22 s

Flow time scale min/max = 3.24850827884529e-09, 1e-08
Smoothed flow time scale min/max = 3.24850827884529e-09, 1e-08
Time = 4.8e-06s

diagonal:  Solving for rho, Initial residual = 0, Final residual = 0, No Iterations 0
smoothSolver:  Solving for Ux, Initial residual = 0.00572739342699587, Final residual = 2.3833868940161e-08, No Iterations 2
smoothSolver:  Solving for Uy, Initial residual = 0.0175479866201264, Final residual = 2.2828274731375e-07, No Iterations 2
smoothSolver:  Solving for Uz, Initial residual = 0.00375002195344114, Final residual = 4.59249372488951e-08, No Iterations 2
smoothSolver:  Solving for e, Initial residual = 0.00537252072871114, Final residual = 2.79503160883608e-08, No Iterations 2
smoothSolver:  Solving for omega, Initial residual = 3.97925865807806e-05, Final residual = 2.08478891632007e-07, No Iterations 1
smoothSolver:  Solving for k, Initial residual = 0.00955705778133725, Final residual = 3.55080241127932e-05, No Iterations 1
bounding k, min: 0 max: 4760.44118032556 average: 3985.55126391065
ExecutionTime = 21.203098 s  ClockTime = 22 s

Flow time scale min/max = 3.24851589553779e-09, 1e-08
Smoothed flow time scale min/max = 3.24851589553779e-09, 1e-08
Time = 4.9e-06s

diagonal:  Solving for rho, Initial residual = 0, Final residual = 0, No Iterations 0
smoothSolver:  Solving for Ux, Initial residual = 0.00560522529077042, Final residual = 2.30912592700731e-08, No Iterations 2
smoothSolver:  Solving for Uy, Initial residual = 0.017170953869987, Final residual = 2.20640978140876e-07, No Iterations 2
smoothSolver:  Solving for Uz, Initial residual = 0.00368501068685405, Final residual = 4.48282803044867e-08, No Iterations 2
smoothSolver:  Solving for e, Initial residual = 0.00524877241524953, Final residual = 2.71767567334779e-08, No Iterations 2
smoothSolver:  Solving for omega, Initial residual = 3.97890110502498e-05, Final residual = 2.07814316958684e-07, No Iterations 1
smoothSolver:  Solving for k, Initial residual = 0.00940135676552995, Final residual = 3.49004489951585e-05, No Iterations 1
bounding k, min: 0 max: 4763.87620235537 average: 3985.29407466588
ExecutionTime = 21.639095 s  ClockTime = 23 s

Flow time scale min/max = 3.2485250360869e-09, 1e-08
Smoothed flow time scale min/max = 3.2485250360869e-09, 1e-08
Time = 5e-06s

diagonal:  Solving for rho, Initial residual = 0, Final residual = 0, No Iterations 0
smoothSolver:  Solving for Ux, Initial residual = 0.00548799128636702, Final residual = 2.23898012370596e-08, No Iterations 2
smoothSolver:  Solving for Uy, Initial residual = 0.0168096393718368, Final residual = 2.13411329835781e-07, No Iterations 2
smoothSolver:  Solving for Uz, Initial residual = 0.00362061981687576, Final residual = 4.37489196229475e-08, No Iterations 2
smoothSolver:  Solving for e, Initial residual = 0.00513006032932974, Final residual = 2.64449664539307e-08, No Iterations 2
smoothSolver:  Solving for omega, Initial residual = 3.97848078550499e-05, Final residual = 2.07154071948668e-07, No Iterations 1
smoothSolver:  Solving for k, Initial residual = 0.00925179249647478, Final residual = 3.43166744880234e-05, No Iterations 1
bounding k, min: 0 max: 4765.76625145962 average: 3985.03805404357
ExecutionTime = 22.063356 s  ClockTime = 23 s

Flow time scale min/max = 3.24853555042709e-09, 1e-08
Smoothed flow time scale min/max = 3.24853555042709e-09, 1e-08
Time = 5.1e-06s

diagonal:  Solving for rho, Initial residual = 0, Final residual = 0, No Iterations 0
smoothSolver:  Solving for Ux, Initial residual = 0.00537540266836105, Final residual = 2.17274322490148e-08, No Iterations 2
smoothSolver:  Solving for Uy, Initial residual = 0.0164629469576706, Final residual = 2.06560933083868e-07, No Iterations 2
smoothSolver:  Solving for Uz, Initial residual = 0.00355765350318351, Final residual = 4.28140596025019e-08, No Iterations 2
smoothSolver:  Solving for e, Initial residual = 0.00501610065572558, Final residual = 2.57526948634012e-08, No Iterations 2
smoothSolver:  Solving for omega, Initial residual = 3.97800734543805e-05, Final residual = 2.06498486927435e-07, No Iterations 1
smoothSolver:  Solving for k, Initial residual = 0.00910801557559926, Final residual = 3.37567808077569e-05, No Iterations 1
bounding k, min: 0 max: 4766.47966977673 average: 3984.78318282065
ExecutionTime = 22.465465 s  ClockTime = 23 s

Flow time scale min/max = 3.24854729286335e-09, 1e-08
Smoothed flow time scale min/max = 3.24854729286335e-09, 1e-08
Time = 5.2e-06s

diagonal:  Solving for rho, Initial residual = 0, Final residual = 0, No Iterations 0
smoothSolver:  Solving for Ux, Initial residual = 0.00526719194203045, Final residual = 2.11015985865066e-08, No Iterations 2
smoothSolver:  Solving for Uy, Initial residual = 0.0161299839996438, Final residual = 2.00079720986034e-07, No Iterations 2
smoothSolver:  Solving for Uz, Initial residual = 0.00349834442246688, Final residual = 4.20332299383163e-08, No Iterations 2
smoothSolver:  Solving for e, Initial residual = 0.00490662811003853, Final residual = 2.50976049919509e-08, No Iterations 2
smoothSolver:  Solving for omega, Initial residual = 3.97748335528092e-05, Final residual = 2.05847707274682e-07, No Iterations 1
smoothSolver:  Solving for k, Initial residual = 0.00896970197886652, Final residual = 3.3219442318884e-05, No Iterations 1
bounding k, min: 0 max: 4765.97898986629 average: 3984.52944157373
ExecutionTime = 22.845646 s  ClockTime = 24 s

Flow time scale min/max = 3.2485601252677e-09, 1e-08
Smoothed flow time scale min/max = 3.2485601252677e-09, 1e-08
Time = 5.3e-06s

diagonal:  Solving for rho, Initial residual = 0, Final residual = 0, No Iterations 0
smoothSolver:  Solving for Ux, Initial residual = 0.0051631105053209, Final residual = 2.05077772394812e-08, No Iterations 2
smoothSolver:  Solving for Uy, Initial residual = 0.0158099439250807, Final residual = 1.93916159389261e-07, No Iterations 2
smoothSolver:  Solving for Uz, Initial residual = 0.00344142162647059, Final residual = 4.13666628770499e-08, No Iterations 2
smoothSolver:  Solving for e, Initial residual = 0.0048013893799341, Final residual = 2.44747014173753e-08, No Iterations 2
smoothSolver:  Solving for omega, Initial residual = 3.97689707008827e-05, Final residual = 2.05200342024657e-07, No Iterations 1
smoothSolver:  Solving for k, Initial residual = 0.008836575782388, Final residual = 3.27032270314622e-05, No Iterations 1
bounding k, min: 0 max: 4765.56227750521 average: 3984.27681096234
ExecutionTime = 23.328059 s  ClockTime = 24 s

Flow time scale min/max = 3.24857392374034e-09, 1e-08
Smoothed flow time scale min/max = 3.24857392374034e-09, 1e-08
Time = 5.4e-06s

diagonal:  Solving for rho, Initial residual = 0, Final residual = 0, No Iterations 0
smoothSolver:  Solving for Ux, Initial residual = 0.00506292951096691, Final residual = 1.99452784726421e-08, No Iterations 2
smoothSolver:  Solving for Uy, Initial residual = 0.0155020585437274, Final residual = 1.88073564101303e-07, No Iterations 2
smoothSolver:  Solving for Uz, Initial residual = 0.00338646787947742, Final residual = 4.05281967431596e-08, No Iterations 2
smoothSolver:  Solving for e, Initial residual = 0.00470015534256435, Final residual = 2.38837262357749e-08, No Iterations 2
smoothSolver:  Solving for omega, Initial residual = 3.97626518289674e-05, Final residual = 2.04556784442958e-07, No Iterations 1
smoothSolver:  Solving for k, Initial residual = 0.00870836775931031, Final residual = 3.22072833927319e-05, No Iterations 1
bounding k, min: 0 max: 4764.66247088263 average: 3984.0252712749
ExecutionTime = 23.753636 s  ClockTime = 25 s

Flow time scale min/max = 3.24858857473541e-09, 1e-08
Smoothed flow time scale min/max = 3.24858857473541e-09, 1e-08
Time = 5.5e-06s

diagonal:  Solving for rho, Initial residual = 0, Final residual = 0, No Iterations 0
smoothSolver:  Solving for Ux, Initial residual = 0.00496643690304316, Final residual = 1.94104377678769e-08, No Iterations 2
smoothSolver:  Solving for Uy, Initial residual = 0.0152056474820561, Final residual = 1.82514495094639e-07, No Iterations 2
smoothSolver:  Solving for Uz, Initial residual = 0.00333416640708262, Final residual = 3.96148903211253e-08, No Iterations 2
smoothSolver:  Solving for e, Initial residual = 0.00460271343886618, Final residual = 2.33207780768871e-08, No Iterations 2
smoothSolver:  Solving for omega, Initial residual = 3.97559514041756e-05, Final residual = 2.03917189764508e-07, No Iterations 1
smoothSolver:  Solving for k, Initial residual = 0.00858483009591654, Final residual = 3.17305717956035e-05, No Iterations 1
bounding k, min: 0 max: 4763.59092904584 average: 3983.77480325916
ExecutionTime = 24.155665 s  ClockTime = 25 s

Flow time scale min/max = 3.24860397618294e-09, 1e-08
Smoothed flow time scale min/max = 3.24860397618294e-09, 1e-08
Time = 5.6e-06s

diagonal:  Solving for rho, Initial residual = 0, Final residual = 0, No Iterations 0
smoothSolver:  Solving for Ux, Initial residual = 0.00487343527164952, Final residual = 1.89012117420146e-08, No Iterations 2
smoothSolver:  Solving for Uy, Initial residual = 0.0149200868487428, Final residual = 1.77222084342399e-07, No Iterations 2
smoothSolver:  Solving for Uz, Initial residual = 0.00328427105185582, Final residual = 3.86166903240796e-08, No Iterations 2
smoothSolver:  Solving for e, Initial residual = 0.00450886119226753, Final residual = 2.27839008105381e-08, No Iterations 2
smoothSolver:  Solving for omega, Initial residual = 3.97489201480449e-05, Final residual = 2.03283359180611e-07, No Iterations 1
smoothSolver:  Solving for k, Initial residual = 0.00846571119145901, Final residual = 3.1272144109387e-05, No Iterations 1
bounding k, min: 0 max: 4762.29890243328 average: 3983.52538819249
ExecutionTime = 24.610561 s  ClockTime = 25 s

Flow time scale min/max = 3.24862003798095e-09, 1e-08
Smoothed flow time scale min/max = 3.24862003798095e-09, 1e-08
Time = 5.7e-06s

diagonal:  Solving for rho, Initial residual = 0, Final residual = 0, No Iterations 0
smoothSolver:  Solving for Ux, Initial residual = 0.00478374066086302, Final residual = 1.84168206050657e-08, No Iterations 2
smoothSolver:  Solving for Uy, Initial residual = 0.0146447938773553, Final residual = 1.72187975493069e-07, No Iterations 2
smoothSolver:  Solving for Uz, Initial residual = 0.00323516947024609, Final residual = 3.77651298130957e-08, No Iterations 2
smoothSolver:  Solving for e, Initial residual = 0.00441841029234129, Final residual = 2.22724698766426e-08, No Iterations 2
smoothSolver:  Solving for omega, Initial residual = 3.97413352079588e-05, Final residual = 2.0265628909827e-07, No Iterations 1
smoothSolver:  Solving for k, Initial residual = 0.00835078302981011, Final residual = 3.08310531583973e-05, No Iterations 1
bounding k, min: 0 max: 4760.84706281839 average: 3983.27700750921
ExecutionTime = 25.042424 s  ClockTime = 26 s

Flow time scale min/max = 3.24863668128892e-09, 1e-08
Smoothed flow time scale min/max = 3.24863668128892e-09, 1e-08
Time = 5.8e-06s

diagonal:  Solving for rho, Initial residual = 0, Final residual = 0, No Iterations 0
smoothSolver:  Solving for Ux, Initial residual = 0.00469718234983202, Final residual = 1.7954791835381e-08, No Iterations 2
smoothSolver:  Solving for Uy, Initial residual = 0.0143792111752068, Final residual = 1.67383120802819e-07, No Iterations 2
smoothSolver:  Solving for Uz, Initial residual = 0.00318705886728815, Final residual = 3.70402801552561e-08, No Iterations 2
smoothSolver:  Solving for e, Initial residual = 0.00433118864392617, Final residual = 2.17837235675621e-08, No Iterations 2
smoothSolver:  Solving for omega, Initial residual = 3.97333264994356e-05, Final residual = 2.02035046296383e-07, No Iterations 1
smoothSolver:  Solving for k, Initial residual = 0.00823983219716913, Final residual = 3.04065178815619e-05, No Iterations 1
bounding k, min: 0 max: 4759.31398537123 average: 3983.02964256411
ExecutionTime = 25.467574 s  ClockTime = 26 s

Flow time scale min/max = 3.24865383697548e-09, 1e-08
Smoothed flow time scale min/max = 3.24865383697548e-09, 1e-08
Time = 5.9e-06s

diagonal:  Solving for rho, Initial residual = 0, Final residual = 0, No Iterations 0
smoothSolver:  Solving for Ux, Initial residual = 0.00461360075642963, Final residual = 1.75131893545362e-08, No Iterations 2
smoothSolver:  Solving for Uy, Initial residual = 0.0141228527151187, Final residual = 1.62796305086858e-07, No Iterations 2
smoothSolver:  Solving for Uz, Initial residual = 0.00313892605248204, Final residual = 3.62517429767422e-08, No Iterations 2
smoothSolver:  Solving for e, Initial residual = 0.00424702938467084, Final residual = 2.13159427863991e-08, No Iterations 2
smoothSolver:  Solving for omega, Initial residual = 3.97249784690833e-05, Final residual = 2.0141918849005e-07, No Iterations 1
smoothSolver:  Solving for k, Initial residual = 0.00813266449548991, Final residual = 2.99976407689279e-05, No Iterations 1
bounding k, min: 0 max: 4757.78348673462 average: 3982.7832748893
ExecutionTime = 25.880842 s  ClockTime = 27 s

Flow time scale min/max = 3.24867144468233e-09, 1e-08
Smoothed flow time scale min/max = 3.24867144468233e-09, 1e-08
Time = 6e-06s

diagonal:  Solving for rho, Initial residual = 0, Final residual = 0, No Iterations 0
smoothSolver:  Solving for Ux, Initial residual = 0.00453284674825052, Final residual = 1.70920441379685e-08, No Iterations 2
smoothSolver:  Solving for Uy, Initial residual = 0.0138752828160914, Final residual = 1.58422612814343e-07, No Iterations 2
smoothSolver:  Solving for Uz, Initial residual = 0.00309274723604644, Final residual = 3.56963660614765e-08, No Iterations 2
smoothSolver:  Solving for e, Initial residual = 0.00416578063238187, Final residual = 2.08692367121698e-08, No Iterations 2
smoothSolver:  Solving for omega, Initial residual = 3.97162937360277e-05, Final residual = 2.0080858277126e-07, No Iterations 1
smoothSolver:  Solving for k, Initial residual = 0.00802907265819975, Final residual = 2.96037640583134e-05, No Iterations 1
bounding k, min: 0 max: 4773.04308053286 average: 3982.53788689813
ExecutionTime = 26.309527 s  ClockTime = 27 s

Flow time scale min/max = 3.24868945316628e-09, 1e-08
Smoothed flow time scale min/max = 3.24868945316628e-09, 1e-08
Time = 6.1e-06s

diagonal:  Solving for rho, Initial residual = 0, Final residual = 0, No Iterations 0
smoothSolver:  Solving for Ux, Initial residual = 0.00445478224393576, Final residual = 1.66898583736611e-08, No Iterations 2
smoothSolver:  Solving for Uy, Initial residual = 0.0136360488866684, Final residual = 1.54245802855625e-07, No Iterations 2
smoothSolver:  Solving for Uz, Initial residual = 0.00304970846097556, Final residual = 3.50882292906441e-08, No Iterations 2
smoothSolver:  Solving for e, Initial residual = 0.0040873032325362, Final residual = 2.044204548787e-08, No Iterations 2
smoothSolver:  Solving for omega, Initial residual = 3.97071476859357e-05, Final residual = 2.0020275382148e-07, No Iterations 1
smoothSolver:  Solving for k, Initial residual = 0.00792888906967427, Final residual = 2.9224347840609e-05, No Iterations 1
bounding k, min: 0 max: 4812.41566746271 average: 3982.29346175385
ExecutionTime = 26.722468 s  ClockTime = 28 s

Flow time scale min/max = 3.24870781922828e-09, 1e-08
Smoothed flow time scale min/max = 3.24870781922828e-09, 1e-08
Time = 6.2e-06s

diagonal:  Solving for rho, Initial residual = 0, Final residual = 0, No Iterations 0
smoothSolver:  Solving for Ux, Initial residual = 0.00437927750604818, Final residual = 1.63046201831953e-08, No Iterations 2
smoothSolver:  Solving for Uy, Initial residual = 0.013404699136245, Final residual = 1.50246440677853e-07, No Iterations 2
smoothSolver:  Solving for Uz, Initial residual = 0.00300961819640993, Final residual = 3.44716437945841e-08, No Iterations 2
smoothSolver:  Solving for e, Initial residual = 0.00401146014671528, Final residual = 2.00321788593276e-08, No Iterations 2
smoothSolver:  Solving for omega, Initial residual = 3.96977508931223e-05, Final residual = 1.9960192338075e-07, No Iterations 1
smoothSolver:  Solving for k, Initial residual = 0.00783195444105303, Final residual = 2.88587434450236e-05, No Iterations 1
bounding k, min: 0 max: 4851.74710373549 average: 3982.04998315756
ExecutionTime = 27.148273 s  ClockTime = 28 s

Flow time scale min/max = 3.24872650574887e-09, 1e-08
Smoothed flow time scale min/max = 3.24872650574887e-09, 1e-08
Time = 6.3e-06s

diagonal:  Solving for rho, Initial residual = 0, Final residual = 0, No Iterations 0
smoothSolver:  Solving for Ux, Initial residual = 0.00430621044254222, Final residual = 1.59356479238837e-08, No Iterations 2
smoothSolver:  Solving for Uy, Initial residual = 0.0131809021292529, Final residual = 1.46417808856019e-07, No Iterations 2
smoothSolver:  Solving for Uz, Initial residual = 0.00297111513846619, Final residual = 3.39266143103055e-08, No Iterations 2
smoothSolver:  Solving for e, Initial residual = 0.0039381279723455, Final residual = 1.96390770105267e-08, No Iterations 2
smoothSolver:  Solving for omega, Initial residual = 3.96881512123052e-05, Final residual = 1.99006024884834e-07, No Iterations 1
smoothSolver:  Solving for k, Initial residual = 0.00773811382753908, Final residual = 2.85066090044893e-05, No Iterations 1
bounding k, min: 0 max: 4890.93110796734 average: 3981.80743616229
ExecutionTime = 27.595138 s  ClockTime = 28 s

Flow time scale min/max = 3.24874548015879e-09, 1e-08
Smoothed flow time scale min/max = 3.24874548015879e-09, 1e-08
Time = 6.4e-06s

diagonal:  Solving for rho, Initial residual = 0, Final residual = 0, No Iterations 0
smoothSolver:  Solving for Ux, Initial residual = 0.00423546697700277, Final residual = 1.558258546257e-08, No Iterations 2
smoothSolver:  Solving for Uy, Initial residual = 0.0129643025305237, Final residual = 1.42753931819888e-07, No Iterations 2
smoothSolver:  Solving for Uz, Initial residual = 0.00293494269048338, Final residual = 3.33849987566047e-08, No Iterations 2
smoothSolver:  Solving for e, Initial residual = 0.00386719109667556, Final residual = 1.92624411793827e-08, No Iterations 2
smoothSolver:  Solving for omega, Initial residual = 3.9678475000331e-05, Final residual = 1.98415009587118e-07, No Iterations 1
smoothSolver:  Solving for k, Initial residual = 0.00764721584154777, Final residual = 2.81679543153443e-05, No Iterations 1
bounding k, min: 0 max: 4929.86247038131 average: 3981.56580681449
ExecutionTime = 28.032732 s  ClockTime = 29 s

Flow time scale min/max = 3.24876471350754e-09, 1e-08
Smoothed flow time scale min/max = 3.24876471350754e-09, 1e-08
Time = 6.5e-06s

diagonal:  Solving for rho, Initial residual = 0, Final residual = 0, No Iterations 0
smoothSolver:  Solving for Ux, Initial residual = 0.00416694009289611, Final residual = 1.52443299666514e-08, No Iterations 2
smoothSolver:  Solving for Uy, Initial residual = 0.0127545187672419, Final residual = 1.39244916828165e-07, No Iterations 2
smoothSolver:  Solving for Uz, Initial residual = 0.00290131282216503, Final residual = 3.28773737190007e-08, No Iterations 2
smoothSolver:  Solving for e, Initial residual = 0.00379853669836703, Final residual = 1.89011455540351e-08, No Iterations 2
smoothSolver:  Solving for omega, Initial residual = 3.96690214404657e-05, Final residual = 1.97834539771674e-07, No Iterations 1
smoothSolver:  Solving for k, Initial residual = 0.00755913233783584, Final residual = 2.78413618257633e-05, No Iterations 1
bounding k, min: 0 max: 4968.43757328184 average: 3981.32508236026
ExecutionTime = 28.445268 s  ClockTime = 29 s

Flow time scale min/max = 3.24878417955378e-09, 1e-08
Smoothed flow time scale min/max = 3.24878417955378e-09, 1e-08
Time = 6.6e-06s

diagonal:  Solving for rho, Initial residual = 0, Final residual = 0, No Iterations 0
smoothSolver:  Solving for Ux, Initial residual = 0.00410052885823932, Final residual = 1.49202613931834e-08, No Iterations 2
smoothSolver:  Solving for Uy, Initial residual = 0.0125512817925306, Final residual = 1.35883596885566e-07, No Iterations 2
smoothSolver:  Solving for Uz, Initial residual = 0.00286885902129972, Final residual = 3.24126277473929e-08, No Iterations 2
smoothSolver:  Solving for e, Initial residual = 0.0037320628873165, Final residual = 1.85545966524295e-08, No Iterations 2
smoothSolver:  Solving for omega, Initial residual = 3.96598298395633e-05, Final residual = 1.97266555460718e-07, No Iterations 1
smoothSolver:  Solving for k, Initial residual = 0.00747372751130453, Final residual = 2.7524860813097e-05, No Iterations 1
bounding k, min: 0 max: 5006.55480981826 average: 3981.08525128075
ExecutionTime = 28.862022 s  ClockTime = 30 s

Flow time scale min/max = 3.24880385353806e-09, 1e-08
Smoothed flow time scale min/max = 3.24880385353806e-09, 1e-08
Time = 6.7e-06s

diagonal:  Solving for rho, Initial residual = 0, Final residual = 0, No Iterations 0
smoothSolver:  Solving for Ux, Initial residual = 0.00403613891164212, Final residual = 1.46090359847176e-08, No Iterations 2
smoothSolver:  Solving for Uy, Initial residual = 0.0123543408778824, Final residual = 1.32657791989987e-07, No Iterations 2
smoothSolver:  Solving for Uz, Initial residual = 0.00283763261441265, Final residual = 3.19378747335251e-08, No Iterations 2
smoothSolver:  Solving for e, Initial residual = 0.00366767183682132, Final residual = 1.82213558937709e-08, No Iterations 2
smoothSolver:  Solving for omega, Initial residual = 3.96509360365519e-05, Final residual = 1.96713593290726e-07, No Iterations 1
smoothSolver:  Solving for k, Initial residual = 0.0073908820147734, Final residual = 2.72179457844889e-05, No Iterations 1
bounding k, min: 0 max: 5044.11490747484 average: 3980.84630339813
ExecutionTime = 29.277896 s  ClockTime = 30 s

Flow time scale min/max = 3.24882371169056e-09, 1e-08
Smoothed flow time scale min/max = 3.24882371169056e-09, 1e-08
Time = 6.8e-06s

diagonal:  Solving for rho, Initial residual = 0, Final residual = 0, No Iterations 0
smoothSolver:  Solving for Ux, Initial residual = 0.00397368047594539, Final residual = 1.43101313840839e-08, No Iterations 2
smoothSolver:  Solving for Uy, Initial residual = 0.0121633118570007, Final residual = 1.29560574599633e-07, No Iterations 2
smoothSolver:  Solving for Uz, Initial residual = 0.00280788104912, Final residual = 3.15165252351669e-08, No Iterations 2
smoothSolver:  Solving for e, Initial residual = 0.00360526754555436, Final residual = 1.79009062917642e-08, No Iterations 2
smoothSolver:  Solving for omega, Initial residual = 3.96429325526989e-05, Final residual = 1.96173218667504e-07, No Iterations 1
smoothSolver:  Solving for k, Initial residual = 0.00731049312295535, Final residual = 2.69200700052616e-05, No Iterations 1
bounding k, min: 0 max: 5081.02133158836 average: 3980.60822818
ExecutionTime = 29.72409 s  ClockTime = 31 s

Flow time scale min/max = 3.24884373312729e-09, 1e-08
Smoothed flow time scale min/max = 3.24884373312729e-09, 1e-08
Time = 6.9e-06s

diagonal:  Solving for rho, Initial residual = 0, Final residual = 0, No Iterations 0
smoothSolver:  Solving for Ux, Initial residual = 0.00391306947899863, Final residual = 1.40232693541547e-08, No Iterations 2
smoothSolver:  Solving for Uy, Initial residual = 0.01197799492257, Final residual = 1.26587089149963e-07, No Iterations 2
smoothSolver:  Solving for Uz, Initial residual = 0.00278009319819279, Final residual = 3.10911353045593e-08, No Iterations 2
smoothSolver:  Solving for e, Initial residual = 0.00354476825979666, Final residual = 1.75930072399724e-08, No Iterations 2
smoothSolver:  Solving for omega, Initial residual = 3.96356215958003e-05, Final residual = 1.95647675780206e-07, No Iterations 1
smoothSolver:  Solving for k, Initial residual = 0.00723244535103893, Final residual = 2.66309300443369e-05, No Iterations 1
bounding k, min: 0 max: 5117.18056153887 average: 3980.37101297989
ExecutionTime = 30.140577 s  ClockTime = 31 s

Flow time scale min/max = 3.24886389790366e-09, 1e-08
Smoothed flow time scale min/max = 3.24886389790366e-09, 1e-08
Time = 7e-06s

diagonal:  Solving for rho, Initial residual = 0, Final residual = 0, No Iterations 0
smoothSolver:  Solving for Ux, Initial residual = 0.00385422662122353, Final residual = 1.37477125872655e-08, No Iterations 2
smoothSolver:  Solving for Uy, Initial residual = 0.0117981098415376, Final residual = 1.23730840010586e-07, No Iterations 2
smoothSolver:  Solving for Uz, Initial residual = 0.00275325254158506, Final residual = 3.06473694208796e-08, No Iterations 2
smoothSolver:  Solving for e, Initial residual = 0.00348608972762073, Final residual = 1.72968604800403e-08, No Iterations 2
smoothSolver:  Solving for omega, Initial residual = 3.9628976866823e-05, Final residual = 1.95136846884728e-07, No Iterations 1
smoothSolver:  Solving for k, Initial residual = 0.00715664015695637, Final residual = 2.63500779879146e-05, No Iterations 1
bounding k, min: 0 max: 5152.50244697777 average: 3980.13464713789
ExecutionTime = 30.562685 s  ClockTime = 31 s

Flow time scale min/max = 3.24888418604242e-09, 1e-08
Smoothed flow time scale min/max = 3.24888418604242e-09, 1e-08
Time = 7.1e-06s

diagonal:  Solving for rho, Initial residual = 0, Final residual = 0, No Iterations 0
smoothSolver:  Solving for Ux, Initial residual = 0.00379707684657442, Final residual = 1.34829587479019e-08, No Iterations 2
smoothSolver:  Solving for Uy, Initial residual = 0.0116234250597177, Final residual = 1.20987028333277e-07, No Iterations 2
smoothSolver:  Solving for Uz, Initial residual = 0.00272776208729615, Final residual = 3.02360256180184e-08, No Iterations 2
smoothSolver:  Solving for e, Initial residual = 0.00342915091798136, Final residual = 1.70120043159302e-08, No Iterations 2
smoothSolver:  Solving for omega, Initial residual = 3.9623041643906e-05, Final residual = 1.94640205681262e-07, No Iterations 1
smoothSolver:  Solving for k, Initial residual = 0.00708298612040517, Final residual = 2.60771253068316e-05, No Iterations 1
bounding k, min: 0 max: 5186.90052286188 average: 3979.89912133311
ExecutionTime = 30.980747 s  ClockTime = 32 s

Flow time scale min/max = 3.24890457699515e-09, 1e-08
Smoothed flow time scale min/max = 3.24890457699515e-09, 1e-08
Time = 7.2e-06s

diagonal:  Solving for rho, Initial residual = 0, Final residual = 0, No Iterations 0
smoothSolver:  Solving for Ux, Initial residual = 0.00374154880688177, Final residual = 1.32283613211232e-08, No Iterations 2
smoothSolver:  Solving for Uy, Initial residual = 0.0114537332528105, Final residual = 1.18347893574458e-07, No Iterations 2
smoothSolver:  Solving for Uz, Initial residual = 0.00270371424909965, Final residual = 2.9851742425169e-08, No Iterations 2
smoothSolver:  Solving for e, Initial residual = 0.00337388054632169, Final residual = 1.67377560003655e-08, No Iterations 2
smoothSolver:  Solving for omega, Initial residual = 3.96177528800679e-05, Final residual = 1.94158056563561e-07, No Iterations 1
smoothSolver:  Solving for k, Initial residual = 0.00701138115386441, Final residual = 2.58117694924522e-05, No Iterations 1
bounding k, min: 0 max: 5220.29227086078 average: 3979.66442782851
[...]
smoothSolver:  Solving for e, Initial residual = 0.000339891958987927, Final residual = 2.76976214206963e-09, No Iterations 2
smoothSolver:  Solving for omega, Initial residual = 5.47317727759766e-05, Final residual = 2.68423762108132e-07, No Iterations 1
smoothSolver:  Solving for k, Initial residual = 0.00122968484740913, Final residual = 5.17913264346869e-06, No Iterations 1
bounding k, min: 0 max: 12666.3661441681 average: 3951.39112677591
ExecutionTime = 302.940733 s  ClockTime = 304 s

Flow time scale min/max = 3.25044142128761e-09, 1e-08
Smoothed flow time scale min/max = 3.25044142128761e-09, 1e-08
Time = 7.07e-05s

diagonal:  Solving for rho, Initial residual = 0, Final residual = 0, No Iterations 0
smoothSolver:  Solving for Ux, Initial residual = 0.000381641364560532, Final residual = 2.39972771421406e-09, No Iterations 2
smoothSolver:  Solving for Uy, Initial residual = 0.00100993942170041, Final residual = 8.65818871809265e-09, No Iterations 2
smoothSolver:  Solving for Uz, Initial residual = 0.000332655833583672, Final residual = 1.4467182962494e-08, No Iterations 2
smoothSolver:  Solving for e, Initial residual = 0.000339547694751633, Final residual = 2.77028878387346e-09, No Iterations 2
smoothSolver:  Solving for omega, Initial residual = 5.47471444101585e-05, Final residual = 2.6861847652386e-07, No Iterations 1
smoothSolver:  Solving for k, Initial residual = 0.00122751526022438, Final residual = 5.17176326902726e-06, No Iterations 1
bounding k, min: 0 max: 12674.3371478512 average: 3951.51080338085
ExecutionTime = 303.349464 s  ClockTime = 305 s

Flow time scale min/max = 3.25044177955427e-09, 1e-08
Smoothed flow time scale min/max = 3.25044177955427e-09, 1e-08
Time = 7.08e-05s

diagonal:  Solving for rho, Initial residual = 0, Final residual = 0, No Iterations 0
smoothSolver:  Solving for Ux, Initial residual = 0.000381165879071452, Final residual = 2.40077748042768e-09, No Iterations 2
smoothSolver:  Solving for Uy, Initial residual = 0.00100901198617412, Final residual = 8.66261128092071e-09, No Iterations 2
smoothSolver:  Solving for Uz, Initial residual = 0.000331899219387213, Final residual = 1.44597400440299e-08, No Iterations 2
smoothSolver:  Solving for e, Initial residual = 0.000339204272641866, Final residual = 2.77080096956765e-09, No Iterations 2
smoothSolver:  Solving for omega, Initial residual = 5.47622057820725e-05, Final residual = 2.68802729359973e-07, No Iterations 1
smoothSolver:  Solving for k, Initial residual = 0.00122535616687976, Final residual = 5.16448119771836e-06, No Iterations 1
bounding k, min: 0 max: 12680.879011505 average: 3951.63089951993
ExecutionTime = 303.764152 s  ClockTime = 305 s

Flow time scale min/max = 3.25044213354196e-09, 1e-08
Smoothed flow time scale min/max = 3.25044213354196e-09, 1e-08
Time = 7.09e-05s

diagonal:  Solving for rho, Initial residual = 0, Final residual = 0, No Iterations 0
smoothSolver:  Solving for Ux, Initial residual = 0.000380691678467783, Final residual = 2.40187464478741e-09, No Iterations 2
smoothSolver:  Solving for Uy, Initial residual = 0.00100808407697847, Final residual = 8.66722906552855e-09, No Iterations 2
smoothSolver:  Solving for Uz, Initial residual = 0.00033119656310913, Final residual = 1.44549552307247e-08, No Iterations 2
smoothSolver:  Solving for e, Initial residual = 0.000338863913310742, Final residual = 2.7714130213487e-09, No Iterations 2
smoothSolver:  Solving for omega, Initial residual = 5.47787962309411e-05, Final residual = 2.68986194794407e-07, No Iterations 1
smoothSolver:  Solving for k, Initial residual = 0.0012232059358686, Final residual = 5.15723334005639e-06, No Iterations 1
bounding k, min: 0 max: 12686.1089294559 average: 3951.75144918797
ExecutionTime = 304.178481 s  ClockTime = 305 s

Flow time scale min/max = 3.25044248354433e-09, 1e-08
Smoothed flow time scale min/max = 3.25044248354433e-09, 1e-08
Time = 7.1e-05s

diagonal:  Solving for rho, Initial residual = 0, Final residual = 0, No Iterations 0
smoothSolver:  Solving for Ux, Initial residual = 0.000380222243404468, Final residual = 2.40293106111921e-09, No Iterations 2
smoothSolver:  Solving for Uy, Initial residual = 0.00100715421845681, Final residual = 8.67198950600408e-09, No Iterations 2
smoothSolver:  Solving for Uz, Initial residual = 0.000330476831109406, Final residual = 1.44468680440878e-08, No Iterations 2
smoothSolver:  Solving for e, Initial residual = 0.000338526522413283, Final residual = 2.77209409117597e-09, No Iterations 2
smoothSolver:  Solving for omega, Initial residual = 5.47950728013034e-05, Final residual = 2.69158096782097e-07, No Iterations 1
smoothSolver:  Solving for k, Initial residual = 0.00122106025324089, Final residual = 5.15000940598963e-06, No Iterations 1
bounding k, min: 0 max: 12690.1351493643 average: 3951.87245117425
ExecutionTime = 304.575649 s  ClockTime = 306 s

Flow time scale min/max = 3.25044282982533e-09, 1e-08
Smoothed flow time scale min/max = 3.25044282982533e-09, 1e-08
Time = 7.11e-05s

diagonal:  Solving for rho, Initial residual = 0, Final residual = 0, No Iterations 0
smoothSolver:  Solving for Ux, Initial residual = 0.000379751256864637, Final residual = 2.40398343620657e-09, No Iterations 2
smoothSolver:  Solving for Uy, Initial residual = 0.00100623612290151, Final residual = 8.67664063835359e-09, No Iterations 2
smoothSolver:  Solving for Uz, Initial residual = 0.000329766550213146, Final residual = 1.44316233985636e-08, No Iterations 2
smoothSolver:  Solving for e, Initial residual = 0.000338190407286625, Final residual = 2.77274767080685e-09, No Iterations 2
smoothSolver:  Solving for omega, Initial residual = 5.48104877189036e-05, Final residual = 2.69334639833035e-07, No Iterations 1
smoothSolver:  Solving for k, Initial residual = 0.00121892254426328, Final residual = 5.14282803733378e-06, No Iterations 1
bounding k, min: 0 max: 12693.0549368829 average: 3951.99390287013
ExecutionTime = 304.963362 s  ClockTime = 306 s

Flow time scale min/max = 3.25044317262337e-09, 1e-08
Smoothed flow time scale min/max = 3.25044317262337e-09, 1e-08
Time = 7.12e-05s

diagonal:  Solving for rho, Initial residual = 0, Final residual = 0, No Iterations 0
smoothSolver:  Solving for Ux, Initial residual = 0.000379281581118802, Final residual = 2.40511945419126e-09, No Iterations 2
smoothSolver:  Solving for Uy, Initial residual = 0.00100531619599033, Final residual = 8.68154698572411e-09, No Iterations 2
smoothSolver:  Solving for Uz, Initial residual = 0.000329057238784264, Final residual = 1.44260384816703e-08, No Iterations 2
smoothSolver:  Solving for e, Initial residual = 0.000337856508026299, Final residual = 2.77346945792581e-09, No Iterations 2
smoothSolver:  Solving for omega, Initial residual = 5.48267671112265e-05, Final residual = 2.6952788882296e-07, No Iterations 1
smoothSolver:  Solving for k, Initial residual = 0.00121679593595158, Final residual = 5.1356932452062e-06, No Iterations 1
bounding k, min: 0 max: 12694.9554949333 average: 3952.11580292678
ExecutionTime = 305.357285 s  ClockTime = 307 s

Flow time scale min/max = 3.25044351215456e-09, 1e-08
Smoothed flow time scale min/max = 3.25044351215456e-09, 1e-08
Time = 7.13e-05s

diagonal:  Solving for rho, Initial residual = 0, Final residual = 0, No Iterations 0
smoothSolver:  Solving for Ux, Initial residual = 0.000378813005196444, Final residual = 2.4062497428675e-09, No Iterations 2
smoothSolver:  Solving for Uy, Initial residual = 0.00100439039030171, Final residual = 8.68644217369253e-09, No Iterations 2
smoothSolver:  Solving for Uz, Initial residual = 0.000328311429094658, Final residual = 1.44238158885409e-08, No Iterations 2
smoothSolver:  Solving for e, Initial residual = 0.000337525049583518, Final residual = 2.77420055853163e-09, No Iterations 2
smoothSolver:  Solving for omega, Initial residual = 5.48428045277628e-05, Final residual = 2.69723543761241e-07, No Iterations 1
smoothSolver:  Solving for k, Initial residual = 0.00121467501280242, Final residual = 5.1285762298502e-06, No Iterations 1
bounding k, min: 0 max: 12695.9075469757 average: 3952.23812441847
ExecutionTime = 305.764404 s  ClockTime = 307 s

Flow time scale min/max = 3.25044384861553e-09, 1e-08
Smoothed flow time scale min/max = 3.25044384861553e-09, 1e-08
Time = 7.14e-05s

diagonal:  Solving for rho, Initial residual = 0, Final residual = 0, No Iterations 0
smoothSolver:  Solving for Ux, Initial residual = 0.000378345810175527, Final residual = 2.40736036255353e-09, No Iterations 2
smoothSolver:  Solving for Uy, Initial residual = 0.00100346264836943, Final residual = 8.69121466863195e-09, No Iterations 2
smoothSolver:  Solving for Uz, Initial residual = 0.000327521362995963, Final residual = 1.44198216118503e-08, No Iterations 2
smoothSolver:  Solving for e, Initial residual = 0.000337195439190242, Final residual = 2.77487990726649e-09, No Iterations 2
smoothSolver:  Solving for omega, Initial residual = 5.48583810685087e-05, Final residual = 2.69919930740244e-07, No Iterations 1
smoothSolver:  Solving for k, Initial residual = 0.00121256705092411, Final residual = 5.12157201051294e-06, No Iterations 1
bounding k, min: 0 max: 12701.8773447968 average: 3952.3608592548
ExecutionTime = 306.157898 s  ClockTime = 307 s

Flow time scale min/max = 3.25044418218574e-09, 1e-08
Smoothed flow time scale min/max = 3.25044418218574e-09, 1e-08
Time = 7.15e-05s

diagonal:  Solving for rho, Initial residual = 0, Final residual = 0, No Iterations 0
smoothSolver:  Solving for Ux, Initial residual = 0.000377880131009903, Final residual = 2.40840169050182e-09, No Iterations 2
smoothSolver:  Solving for Uy, Initial residual = 0.00100253782581117, Final residual = 8.69574895009171e-09, No Iterations 2
smoothSolver:  Solving for Uz, Initial residual = 0.000326737849947683, Final residual = 1.44133424017457e-08, No Iterations 2
smoothSolver:  Solving for e, Initial residual = 0.000336868578213022, Final residual = 2.77549587626873e-09, No Iterations 2
smoothSolver:  Solving for omega, Initial residual = 5.48744328194326e-05, Final residual = 2.70120443892414e-07, No Iterations 1
smoothSolver:  Solving for k, Initial residual = 0.00121046889332427, Final residual = 5.11454844186452e-06, No Iterations 1
bounding k, min: 0 max: 12710.9521680269 average: 3952.48397929857
ExecutionTime = 306.539618 s  ClockTime = 308 s

Flow time scale min/max = 3.25044451302941e-09, 1e-08
Smoothed flow time scale min/max = 3.25044451302941e-09, 1e-08
Time = 7.16e-05s

diagonal:  Solving for rho, Initial residual = 0, Final residual = 0, No Iterations 0
smoothSolver:  Solving for Ux, Initial residual = 0.000377416327262127, Final residual = 2.40940489143026e-09, No Iterations 2
smoothSolver:  Solving for Uy, Initial residual = 0.00100161509653586, Final residual = 8.70030982395108e-09, No Iterations 2
smoothSolver:  Solving for Uz, Initial residual = 0.000325955785175014, Final residual = 1.44033371066099e-08, No Iterations 2
smoothSolver:  Solving for e, Initial residual = 0.000336545029760259, Final residual = 2.77610648198029e-09, No Iterations 2
smoothSolver:  Solving for omega, Initial residual = 5.48906974302654e-05, Final residual = 2.70314242517822e-07, No Iterations 1
smoothSolver:  Solving for k, Initial residual = 0.00120838121648919, Final residual = 5.10756313484762e-06, No Iterations 1
bounding k, min: 0 max: 12718.6246185885 average: 3952.60749815224
ExecutionTime = 306.935578 s  ClockTime = 308 s

Flow time scale min/max = 3.25044484129714e-09, 1e-08
Smoothed flow time scale min/max = 3.25044484129714e-09, 1e-08
Time = 7.17e-05s

diagonal:  Solving for rho, Initial residual = 0, Final residual = 0, No Iterations 0
smoothSolver:  Solving for Ux, Initial residual = 0.000376952987106578, Final residual = 2.41039217307332e-09, No Iterations 2
smoothSolver:  Solving for Uy, Initial residual = 0.00100068596723585, Final residual = 8.70473351653667e-09, No Iterations 2
smoothSolver:  Solving for Uz, Initial residual = 0.000325177365487206, Final residual = 1.43948517520058e-08, No Iterations 2
smoothSolver:  Solving for e, Initial residual = 0.000336225635600044, Final residual = 2.77666406602183e-09, No Iterations 2
smoothSolver:  Solving for omega, Initial residual = 5.49068385677343e-05, Final residual = 2.70513059098265e-07, No Iterations 1
smoothSolver:  Solving for k, Initial residual = 0.0012063032391576, Final residual = 5.10060024123143e-06, No Iterations 1
bounding k, min: 0 max: 12725.0103685258 average: 3952.73141600245
ExecutionTime = 307.349996 s  ClockTime = 309 s

Flow time scale min/max = 3.25044516712732e-09, 1e-08
Smoothed flow time scale min/max = 3.25044516712732e-09, 1e-08
Time = 7.18e-05s

diagonal:  Solving for rho, Initial residual = 0, Final residual = 0, No Iterations 0
smoothSolver:  Solving for Ux, Initial residual = 0.000376490896601029, Final residual = 2.41137348354063e-09, No Iterations 2
smoothSolver:  Solving for Uy, Initial residual = 0.000999759908591451, Final residual = 8.70905856738016e-09, No Iterations 2
smoothSolver:  Solving for Uz, Initial residual = 0.000324439382980002, Final residual = 1.43695441557712e-08, No Iterations 2
smoothSolver:  Solving for e, Initial residual = 0.000335905863271887, Final residual = 2.77722135895373e-09, No Iterations 2
smoothSolver:  Solving for omega, Initial residual = 5.49226284779329e-05, Final residual = 2.7070404177683e-07, No Iterations 1
smoothSolver:  Solving for k, Initial residual = 0.0012042359353126, Final residual = 5.09368491099663e-06, No Iterations 1
bounding k, min: 0 max: 12730.2152476941 average: 3952.85570484372
ExecutionTime = 307.736967 s  ClockTime = 309 s

Flow time scale min/max = 3.25044549064736e-09, 1e-08
Smoothed flow time scale min/max = 3.25044549064736e-09, 1e-08
Time = 7.19e-05s

diagonal:  Solving for rho, Initial residual = 0, Final residual = 0, No Iterations 0
smoothSolver:  Solving for Ux, Initial residual = 0.00037603182130751, Final residual = 2.41237387326837e-09, No Iterations 2
smoothSolver:  Solving for Uy, Initial residual = 0.000998824320668356, Final residual = 8.71368862137243e-09, No Iterations 2
smoothSolver:  Solving for Uz, Initial residual = 0.000323743876222145, Final residual = 1.43587095280674e-08, No Iterations 2
smoothSolver:  Solving for e, Initial residual = 0.000335585641262625, Final residual = 2.77784630473664e-09, No Iterations 2
smoothSolver:  Solving for omega, Initial residual = 5.49384068697485e-05, Final residual = 2.70885467071772e-07, No Iterations 1
smoothSolver:  Solving for k, Initial residual = 0.00120217026682721, Final residual = 5.08683159287234e-06, No Iterations 1
bounding k, min: 0 max: 12734.3362612425 average: 3952.98035088741
ExecutionTime = 308.148271 s  ClockTime = 309 s

Flow time scale min/max = 3.25044581197466e-09, 1e-08
Smoothed flow time scale min/max = 3.25044581197466e-09, 1e-08
Time = 7.2e-05s

diagonal:  Solving for rho, Initial residual = 0, Final residual = 0, No Iterations 0
smoothSolver:  Solving for Ux, Initial residual = 0.000375572707539633, Final residual = 2.41342543728178e-09, No Iterations 2
smoothSolver:  Solving for Uy, Initial residual = 0.000997899774644754, Final residual = 8.71837549572648e-09, No Iterations 2
smoothSolver:  Solving for Uz, Initial residual = 0.000323061399641484, Final residual = 1.4354984261146e-08, No Iterations 2
smoothSolver:  Solving for e, Initial residual = 0.000335265756252666, Final residual = 2.77847833546268e-09, No Iterations 2
smoothSolver:  Solving for omega, Initial residual = 5.49545426247657e-05, Final residual = 2.71062712056379e-07, No Iterations 1
smoothSolver:  Solving for k, Initial residual = 0.00120010743029203, Final residual = 5.08005082221095e-06, No Iterations 1
bounding k, min: 0 max: 12737.4605600031 average: 3953.10537645648
ExecutionTime = 308.563201 s  ClockTime = 310 s

Flow time scale min/max = 3.25044613121755e-09, 1e-08
Smoothed flow time scale min/max = 3.25044613121755e-09, 1e-08
Time = 7.21e-05s

diagonal:  Solving for rho, Initial residual = 0, Final residual = 0, No Iterations 0
smoothSolver:  Solving for Ux, Initial residual = 0.000375115181210556, Final residual = 2.41446874663861e-09, No Iterations 2
smoothSolver:  Solving for Uy, Initial residual = 0.000996974163662388, Final residual = 8.72314723134544e-09, No Iterations 2
smoothSolver:  Solving for Uz, Initial residual = 0.000322405146521742, Final residual = 1.43496776567556e-08, No Iterations 2
smoothSolver:  Solving for e, Initial residual = 0.000334946555084842, Final residual = 2.77912009259489e-09, No Iterations 2
smoothSolver:  Solving for omega, Initial residual = 5.49705161026635e-05, Final residual = 2.71246360940807e-07, No Iterations 1
smoothSolver:  Solving for k, Initial residual = 0.00119805195127953, Final residual = 5.07331617457905e-06, No Iterations 1
bounding k, min: 0 max: 12739.6654646704 average: 3953.23075329891
ExecutionTime = 308.976319 s  ClockTime = 310 s

Flow time scale min/max = 3.25044644847607e-09, 1e-08
Smoothed flow time scale min/max = 3.25044644847607e-09, 1e-08
Time = 7.22e-05s

diagonal:  Solving for rho, Initial residual = 0, Final residual = 0, No Iterations 0
smoothSolver:  Solving for Ux, Initial residual = 0.000374660058124999, Final residual = 2.41553370396948e-09, No Iterations 2
smoothSolver:  Solving for Uy, Initial residual = 0.000996055711382241, Final residual = 8.72808526394673e-09, No Iterations 2
smoothSolver:  Solving for Uz, Initial residual = 0.00032172804169093, Final residual = 1.43416158965536e-08, No Iterations 2
smoothSolver:  Solving for e, Initial residual = 0.000334629040631405, Final residual = 2.77985257751297e-09, No Iterations 2
smoothSolver:  Solving for omega, Initial residual = 5.49858407277833e-05, Final residual = 2.71439104781665e-07, No Iterations 1
smoothSolver:  Solving for k, Initial residual = 0.00119601040524698, Final residual = 5.06657554862966e-06, No Iterations 1
bounding k, min: 0 max: 12741.0090266729 average: 3953.35646459657
ExecutionTime = 309.415098 s  ClockTime = 311 s

Flow time scale min/max = 3.25044676384265e-09, 1e-08
Smoothed flow time scale min/max = 3.25044676384265e-09, 1e-08
Time = 7.23e-05s

diagonal:  Solving for rho, Initial residual = 0, Final residual = 0, No Iterations 0
smoothSolver:  Solving for Ux, Initial residual = 0.000374205627010674, Final residual = 2.416542156833e-09, No Iterations 2
smoothSolver:  Solving for Uy, Initial residual = 0.000995138371996351, Final residual = 8.73295309515018e-09, No Iterations 2
smoothSolver:  Solving for Uz, Initial residual = 0.000321018820268786, Final residual = 1.43314355857865e-08, No Iterations 2
smoothSolver:  Solving for e, Initial residual = 0.000334312952179105, Final residual = 2.78049713299327e-09, No Iterations 2
smoothSolver:  Solving for omega, Initial residual = 5.50024534599527e-05, Final residual = 2.71632585763939e-07, No Iterations 1
smoothSolver:  Solving for k, Initial residual = 0.00119398059646227, Final residual = 5.05985665733892e-06, No Iterations 1
bounding k, min: 0 max: 12741.5444885512 average: 3953.48256046807
ExecutionTime = 309.819422 s  ClockTime = 311 s

Flow time scale min/max = 3.25044707740271e-09, 1e-08
Smoothed flow time scale min/max = 3.25044707740271e-09, 1e-08
Time = 7.24e-05s

diagonal:  Solving for rho, Initial residual = 0, Final residual = 0, No Iterations 0
smoothSolver:  Solving for Ux, Initial residual = 0.000373751828760126, Final residual = 2.41748867826568e-09, No Iterations 2
smoothSolver:  Solving for Uy, Initial residual = 0.000994220610888275, Final residual = 8.7375187561581e-09, No Iterations 2
smoothSolver:  Solving for Uz, Initial residual = 0.000320297207310633, Final residual = 1.43229974364209e-08, No Iterations 2
smoothSolver:  Solving for e, Initial residual = 0.000333997913110639, Final residual = 2.78104953469556e-09, No Iterations 2
